@<TRIPOS>MOLECULE
ACSALA07
    84    84     4     0     0
SMALL
NO_CHARGES
****
Generated from the CSD

@<TRIPOS>ATOM
     1 C1       1.6707   3.7200   0.7748   C.2       1 RES1   0.0000
     2 C2       2.8032   3.2231   0.0994   C.2       1 RES1   0.0000
     3 C3       3.3577   2.0256   0.4743   C.2       1 RES1   0.0000
     4 C4       2.8198   1.2879   1.5359   C.2       1 RES1   0.0000
     5 C5       1.7178   1.7795   2.1919   C.2       1 RES1   0.0000
     6 C6       1.1542   2.9618   1.8274   C.2       1 RES1   0.0000
     7 C7       0.9892   5.0026   0.4366   C.2       1 RES1   0.0000
     8 C8       4.2532   4.8561  -0.7177   C.2       1 RES1   0.0000
     9 C9       4.7203   5.5093  -1.9656   C.3       1 RES1   0.0000
    10 O1       1.4267   5.6914  -0.5794   O.3       1 RES1   0.0000
    11 O2       0.0026   5.3615   1.0914   O.2       1 RES1   0.0000
    12 O3       3.3600   3.8776  -1.0045   O.3       1 RES1   0.0000
    13 O4       4.5473   5.1425   0.4046   O.2       1 RES1   0.0000
    14 H1       4.2259   1.6297  -0.1486   H         1 RES1   0.0000
    15 H2       3.2741   0.3497   1.8628   H         1 RES1   0.0000
    16 H3       1.2911   1.1678   3.0856   H         1 RES1   0.0000
    17 H4       0.3045   3.3518   2.3554   H         1 RES1   0.0000
    18 H5       5.4069   6.3011  -1.7028   H         1 RES1   0.0000
    19 H6       3.9543   5.8260  -2.6056   H         1 RES1   0.0000
    20 H7       5.1894   4.8033  -2.6285   H         1 RES1   0.0000
    21 H8       0.8122   6.5518  -0.7508   H         1 RES1   0.0000
    22 C1       9.1851   0.4210   4.9393   C.2       2 RES2   0.0000
    23 C2       8.0526  -0.0759   5.6147   C.2       2 RES2   0.0000
    24 C3       7.4980  -1.2734   5.2398   C.2       2 RES2   0.0000
    25 C4       8.0359  -2.0111   4.1781   C.2       2 RES2   0.0000
    26 C5       9.1379  -1.5195   3.5222   C.2       2 RES2   0.0000
    27 C6       9.7015  -0.3372   3.8867   C.2       2 RES2   0.0000
    28 C7       9.8665   1.7036   5.2775   C.2       2 RES2   0.0000
    29 C8       6.6025   1.5571   6.4318   C.2       2 RES2   0.0000
    30 C9       6.1354   2.2103   7.6797   C.3       2 RES2   0.0000
    31 O1       9.4290   2.3924   6.2935   O.3       2 RES2   0.0000
    32 O2      10.8531   2.0625   4.6227   O.2       2 RES2   0.0000
    33 O3       7.4957   0.5786   6.7186   O.3       2 RES2   0.0000
    34 O4       6.3084   1.8435   5.3095   O.2       2 RES2   0.0000
    35 H1       6.6298  -1.6693   5.8627   H         2 RES2   0.0000
    36 H2       7.5816  -2.9493   3.8513   H         2 RES2   0.0000
    37 H3       9.5646  -2.1312   2.6285   H         2 RES2   0.0000
    38 H4      10.5513   0.0528   3.3587   H         2 RES2   0.0000
    39 H5       5.4488   3.0021   7.4169   H         2 RES2   0.0000
    40 H6       6.9015   2.5270   8.3197   H         2 RES2   0.0000
    41 H7       5.6663   1.5043   8.3426   H         2 RES2   0.0000
    42 H8      10.0435   3.2528   6.4649   H         2 RES2   0.0000
    43 C1       8.6248   2.8780  10.6534   C.2       3 RES3   0.0000
    44 C2       7.4923   3.3749  11.3288   C.2       3 RES3   0.0000
    45 C3       6.9377   4.5724  10.9539   C.2       3 RES3   0.0000
    46 C4       7.4756   5.3101   9.8922   C.2       3 RES3   0.0000
    47 C5       8.5776   4.8185   9.2363   C.2       3 RES3   0.0000
    48 C6       9.1412   3.6362   9.6008   C.2       3 RES3   0.0000
    49 C7       9.3063   1.5954  10.9916   C.2       3 RES3   0.0000
    50 C8       6.0423   1.7419  12.1459   C.2       3 RES3   0.0000
    51 C9       5.5751   1.0887  13.3938   C.3       3 RES3   0.0000
    52 O1       8.8687   0.9066  12.0076   O.3       3 RES3   0.0000
    53 O2      10.2929   1.2365  10.3368   O.2       3 RES3   0.0000
    54 O3       6.9354   2.7204  12.4327   O.3       3 RES3   0.0000
    55 O4       5.7482   1.4555  11.0236   O.2       3 RES3   0.0000
    56 H1       6.0695   4.9683  11.5768   H         3 RES3   0.0000
    57 H2       7.0213   6.2483   9.5654   H         3 RES3   0.0000
    58 H3       9.0043   5.4302   8.3426   H         3 RES3   0.0000
    59 H4       9.9910   3.2462   9.0728   H         3 RES3   0.0000
    60 H5       4.8886   0.2969  13.1310   H         3 RES3   0.0000
    61 H6       6.3412   0.7720  14.0338   H         3 RES3   0.0000
    62 H7       5.1060   1.7947  14.0567   H         3 RES3   0.0000
    63 H8       9.4832   0.0462  12.1790   H         3 RES3   0.0000
    64 C1       1.1104   6.1770   6.4889   C.2       4 RES4   0.0000
    65 C2       2.2429   6.6739   5.8135   C.2       4 RES4   0.0000
    66 C3       2.7975   7.8714   6.1884   C.2       4 RES4   0.0000
    67 C4       2.2596   8.6091   7.2500   C.2       4 RES4   0.0000
    68 C5       1.1575   8.1175   7.9060   C.2       4 RES4   0.0000
    69 C6       0.5939   6.9352   7.5415   C.2       4 RES4   0.0000
    70 C7       0.4289   4.8944   6.1507   C.2       4 RES4   0.0000
    71 C8       3.6929   5.0409   4.9964   C.2       4 RES4   0.0000
    72 C9       4.1600   4.3877   3.7484   C.3       4 RES4   0.0000
    73 O1       0.8665   4.2056   5.1347   O.3       4 RES4   0.0000
    74 O2      -0.5577   4.5355   6.8055   O.2       4 RES4   0.0000
    75 O3       2.7998   6.0194   4.7096   O.3       4 RES4   0.0000
    76 O4       3.9870   4.7545   6.1187   O.2       4 RES4   0.0000
    77 H1       3.6657   8.2673   5.5655   H         4 RES4   0.0000
    78 H2       2.7138   9.5473   7.5769   H         4 RES4   0.0000
    79 H3       0.7309   8.7292   8.7997   H         4 RES4   0.0000
    80 H4      -0.2558   6.5452   8.0694   H         4 RES4   0.0000
    81 H5       4.8466   3.5959   4.0113   H         4 RES4   0.0000
    82 H6       3.3940   4.0710   3.1085   H         4 RES4   0.0000
    83 H7       4.6292   5.0937   3.0856   H         4 RES4   0.0000
    84 H8       0.2520   3.3452   4.9633   H         4 RES4   0.0000
@<TRIPOS>BOND
     1     1     2   un
     2     1     6   un
     3     1     7   un
     4     2     3   un
     5     2    12    1
     6     3     4   un
     7     3    14    1
     8     4     5   un
     9     4    15    1
    10     5     6   un
    11     5    16    1
    12     6    17    1
    13     7    10    1
    14     7    11    2
    15     8     9    1
    16     8    12    1
    17     8    13    2
    18     9    18    1
    19     9    19    1
    20     9    20    1
    21    10    21    1
    22    22    23   un
    23    22    27   un
    24    22    28   un
    25    23    24   un
    26    23    33    1
    27    24    25   un
    28    24    35    1
    29    25    26   un
    30    25    36    1
    31    26    27   un
    32    26    37    1
    33    27    38    1
    34    28    31    1
    35    28    32    2
    36    29    30    1
    37    29    33    1
    38    29    34    2
    39    30    39    1
    40    30    40    1
    41    30    41    1
    42    31    42    1
    43    43    44   un
    44    43    48   un
    45    43    49   un
    46    44    45   un
    47    44    54    1
    48    45    46   un
    49    45    56    1
    50    46    47   un
    51    46    57    1
    52    47    48   un
    53    47    58    1
    54    48    59    1
    55    49    52    1
    56    49    53    2
    57    50    51    1
    58    50    54    1
    59    50    55    2
    60    51    60    1
    61    51    61    1
    62    51    62    1
    63    52    63    1
    64    64    65   un
    65    64    69   un
    66    64    70   un
    67    65    66   un
    68    65    75    1
    69    66    67   un
    70    66    77    1
    71    67    68   un
    72    67    78    1
    73    68    69   un
    74    68    79    1
    75    69    80    1
    76    70    73    1
    77    70    74    2
    78    71    72    1
    79    71    75    1
    80    71    76    2
    81    72    81    1
    82    72    82    1
    83    72    83    1
    84    73    84    1
@<TRIPOS>SUBSTRUCTURE
     1 RES1        1 GROUP             0 ****  ****    0  
     2 RES2       22 GROUP             0 ****  ****    0  
     3 RES3       43 GROUP             0 ****  ****    0  
     4 RES4       64 GROUP             0 ****  ****    0  
@<TRIPOS>CRYSIN
   11.4160    6.5980   11.4830   90.0000   95.6000   90.0000    14     1
