@<TRIPOS>MOLECULE
DPC99190
   360   384    12     0     0
SMALL
NO_CHARGES
****
Generated from the CSD

@<TRIPOS>ATOM
     1 Cl1     15.5379   7.3749   8.4277   Cl        1 RES1   0.0000
     2 F1      16.9547   4.4484   3.2999   F         1 RES1   0.0000
     3 C1      14.8059   4.3056   4.3049   C.3       1 RES1   0.0000
     4 C2      15.6888   4.9027   3.2289   C.3       1 RES1   0.0000
     5 F2      15.2598   4.6805   1.9890   F         1 RES1   0.0000
     6 O1      14.7789   2.8995   3.9579   O.3       1 RES1   0.0000
     7 F3      15.7888   6.2406   3.3669   F         1 RES1   0.0000
     8 O2      15.6187   0.8630   3.9709   O.2       1 RES1   0.0000
     9 C3      15.6098   1.9302   4.4809   C.2       1 RES1   0.0000
    10 N1      16.2938   2.3042   5.5838   N.am      1 RES1   0.0000
    11 C4      16.1538   3.5124   6.2438   C.2       1 RES1   0.0000
    12 C5      15.4108   4.5234   5.6719   C.2       1 RES1   0.0000
    13 C6      16.6967   3.6845   7.5038   C.2       1 RES1   0.0000
    14 C7      16.5368   4.8724   8.1598   C.2       1 RES1   0.0000
    15 C8      15.8058   5.8706   7.5748   C.3       1 RES1   0.0000
    16 C9      15.1988   5.7076   6.3298   C.2       1 RES1   0.0000
    17 C10     13.4529   4.8105   4.1929   C.1       1 RES1   0.0000
    18 C11     12.4050   5.2547   4.1409   C.1       1 RES1   0.0000
    19 C12     11.0172   5.7188   3.9559   C.3       1 RES1   0.0000
    20 C13     10.6882   6.7058   4.4318   C.3       1 RES1   0.0000
    21 C14     10.0073   5.7188   4.4809   C.3       1 RES1   0.0000
    22 H1      16.8637   1.7453   5.9028   H         1 RES1   0.0000
    23 H2      17.1707   2.9914   7.9048   H         1 RES1   0.0000
    24 H3      16.9206   5.0036   8.9967   H         1 RES1   0.0000
    25 H4      14.6719   6.3789   5.9588   H         1 RES1   0.0000
    26 H5      10.8522   5.7837   2.9909   H         1 RES1   0.0000
    27 H6      10.4072   7.4229   3.8429   H         1 RES1   0.0000
    28 H7      11.1351   6.9888   5.2438   H         1 RES1   0.0000
    29 H8       9.9372   5.2547   5.3278   H         1 RES1   0.0000
    30 H9       9.2092   5.6888   3.9279   H         1 RES1   0.0000
    31 Cl1      7.1125   6.2581   1.2921   Cl        2 RES2   0.0000
    32 F1       8.5293   9.1846   6.4199   F         2 RES2   0.0000
    33 C1       6.3805   9.3274   5.4149   C.3       2 RES2   0.0000
    34 C2       7.2635   8.7303   6.4909   C.3       2 RES2   0.0000
    35 F2       6.8345   8.9525   7.7308   F         2 RES2   0.0000
    36 O1       6.3536  10.7335   5.7619   O.3       2 RES2   0.0000
    37 F3       7.3634   7.3924   6.3529   F         2 RES2   0.0000
    38 O2       7.1934  12.7700   5.7489   O.2       2 RES2   0.0000
    39 C3       7.1845  11.7028   5.2389   C.2       2 RES2   0.0000
    40 N1       7.8684  11.3288   4.1360   N.am      2 RES2   0.0000
    41 C4       7.7284  10.1206   3.4760   C.2       2 RES2   0.0000
    42 C5       6.9855   9.1096   4.0479   C.2       2 RES2   0.0000
    43 C6       8.2713   9.9485   2.2160   C.2       2 RES2   0.0000
    44 C7       8.1114   8.7606   1.5600   C.2       2 RES2   0.0000
    45 C8       7.3804   7.7624   2.1450   C.3       2 RES2   0.0000
    46 C9       6.7735   7.9254   3.3900   C.2       2 RES2   0.0000
    47 C10      5.0276   8.8225   5.5269   C.1       2 RES2   0.0000
    48 C11      3.9796   8.3783   5.5789   C.1       2 RES2   0.0000
    49 C12      2.5918   7.9142   5.7639   C.3       2 RES2   0.0000
    50 C13      2.2629   6.9272   5.2880   C.3       2 RES2   0.0000
    51 C14      1.5819   7.9142   5.2389   C.3       2 RES2   0.0000
    52 H1       8.4383  11.8877   3.8170   H         2 RES2   0.0000
    53 H2       8.7453  10.6416   1.8150   H         2 RES2   0.0000
    54 H3       8.4953   8.6294   0.7231   H         2 RES2   0.0000
    55 H4       6.2466   7.2541   3.7610   H         2 RES2   0.0000
    56 H5       2.4268   7.8493   6.7289   H         2 RES2   0.0000
    57 H6       1.9818   6.2101   5.8769   H         2 RES2   0.0000
    58 H7       2.7098   6.6442   4.4760   H         2 RES2   0.0000
    59 H8       1.5118   8.3783   4.3920   H         2 RES2   0.0000
    60 H9       0.7839   7.9442   5.7919   H         2 RES2   0.0000
    61 Cl1      1.3128  19.8911   8.4277   Cl        3 RES3   0.0000
    62 F1      -0.1040  22.8176   3.2999   F         3 RES3   0.0000
    63 C1       2.0448  22.9604   4.3049   C.3       3 RES3   0.0000
    64 C2       1.1619  22.3633   3.2289   C.3       3 RES3   0.0000
    65 F2       1.5909  22.5855   1.9890   F         3 RES3   0.0000
    66 O1       2.0718  24.3665   3.9579   O.3       3 RES3   0.0000
    67 F3       1.0619  21.0254   3.3669   F         3 RES3   0.0000
    68 O2       1.2320  26.4030   3.9709   O.2       3 RES3   0.0000
    69 C3       1.2409  25.3358   4.4809   C.2       3 RES3   0.0000
    70 N1       0.5569  24.9618   5.5838   N.am      3 RES3   0.0000
    71 C4       0.6969  23.7536   6.2438   C.2       3 RES3   0.0000
    72 C5       1.4399  22.7426   5.6719   C.2       3 RES3   0.0000
    73 C6       0.1540  23.5815   7.5038   C.2       3 RES3   0.0000
    74 C7       0.3139  22.3936   8.1598   C.2       3 RES3   0.0000
    75 C8       1.0449  21.3954   7.5748   C.3       3 RES3   0.0000
    76 C9       1.6519  21.5584   6.3298   C.2       3 RES3   0.0000
    77 C10      3.3978  22.4555   4.1929   C.1       3 RES3   0.0000
    78 C11      4.4457  22.0113   4.1409   C.1       3 RES3   0.0000
    79 C12      5.8335  21.5472   3.9559   C.3       3 RES3   0.0000
    80 C13      6.1625  20.5602   4.4318   C.3       3 RES3   0.0000
    81 C14      6.8434  21.5472   4.4809   C.3       3 RES3   0.0000
    82 H1      -0.0130  25.5207   5.9028   H         3 RES3   0.0000
    83 H2      -0.3200  24.2746   7.9048   H         3 RES3   0.0000
    84 H3      -0.0699  22.2624   8.9967   H         3 RES3   0.0000
    85 H4       2.1788  20.8871   5.9588   H         3 RES3   0.0000
    86 H5       5.9985  21.4823   2.9909   H         3 RES3   0.0000
    87 H6       6.4435  19.8431   3.8429   H         3 RES3   0.0000
    88 H7       5.7156  20.2772   5.2438   H         3 RES3   0.0000
    89 H8       6.9135  22.0113   5.3278   H         3 RES3   0.0000
    90 H9       7.6415  21.5772   3.9279   H         3 RES3   0.0000
    91 Cl1      9.7382  21.0079   1.2921   Cl        4 RES4   0.0000
    92 F1       8.3214  18.0814   6.4199   F         4 RES4   0.0000
    93 C1      10.4702  17.9386   5.4149   C.3       4 RES4   0.0000
    94 C2       9.5872  18.5357   6.4909   C.3       4 RES4   0.0000
    95 F2      10.0162  18.3135   7.7308   F         4 RES4   0.0000
    96 O1      10.4971  16.5325   5.7619   O.3       4 RES4   0.0000
    97 F3       9.4873  19.8736   6.3529   F         4 RES4   0.0000
    98 O2       9.6573  14.4960   5.7489   O.2       4 RES4   0.0000
    99 C3       9.6662  15.5632   5.2389   C.2       4 RES4   0.0000
   100 N1       8.9823  15.9372   4.1360   N.am      4 RES4   0.0000
   101 C4       9.1223  17.1454   3.4760   C.2       4 RES4   0.0000
   102 C5       9.8652  18.1564   4.0479   C.2       4 RES4   0.0000
   103 C6       8.5794  17.3175   2.2160   C.2       4 RES4   0.0000
   104 C7       8.7393  18.5054   1.5600   C.2       4 RES4   0.0000
   105 C8       9.4703  19.5036   2.1450   C.3       4 RES4   0.0000
   106 C9      10.0772  19.3406   3.3900   C.2       4 RES4   0.0000
   107 C10     11.8231  18.4435   5.5269   C.1       4 RES4   0.0000
   108 C11     12.8711  18.8877   5.5789   C.1       4 RES4   0.0000
   109 C12     14.2589  19.3518   5.7639   C.3       4 RES4   0.0000
   110 C13     14.5878  20.3388   5.2880   C.3       4 RES4   0.0000
   111 C14     15.2688  19.3518   5.2389   C.3       4 RES4   0.0000
   112 H1       8.4124  15.3783   3.8170   H         4 RES4   0.0000
   113 H2       8.1054  16.6244   1.8150   H         4 RES4   0.0000
   114 H3       8.3554  18.6366   0.7231   H         4 RES4   0.0000
   115 H4      10.6041  20.0119   3.7610   H         4 RES4   0.0000
   116 H5      14.4239  19.4167   6.7289   H         4 RES4   0.0000
   117 H6      14.8689  21.0559   5.8769   H         4 RES4   0.0000
   118 H7      14.1409  20.6218   4.4760   H         4 RES4   0.0000
   119 H8      15.3389  18.8877   4.3920   H         4 RES4   0.0000
   120 H9      16.0668  19.3218   5.7919   H         4 RES4   0.0000
   121 Cl2     11.4871  22.3134   5.4528   Cl        5 RES5   0.0000
   122 F4      11.8021  23.5516   0.3370   F         5 RES5   0.0000
   123 C15     14.0139  23.4376   1.0580   C.3       5 RES5   0.0000
   124 C16     12.9969  24.0647   0.0860   C.3       5 RES5   0.0000
   125 F5      12.9161  25.3737   0.2990   F         5 RES5   0.0000
   126 O3      15.3089  24.0325   0.6710   O.3       5 RES5   0.0000
   127 F6      13.3289  23.8627  -1.1420   F         5 RES5   0.0000
   128 O4      16.7048  25.7279   0.6590   O.2       5 RES5   0.0000
   129 C17     15.7667  25.1938   1.2240   C.2       5 RES5   0.0000
   130 N2      15.2019  25.5998   2.3460   N.am      5 RES5   0.0000
   131 C18     14.2569  24.8827   3.0920   C.2       5 RES5   0.0000
   132 C19     13.7160  23.7487   2.4869   C.2       5 RES5   0.0000
   133 C20     13.9638  25.1859   4.3629   C.2       5 RES5   0.0000
   134 C21     13.0930  24.4516   5.1059   C.2       5 RES5   0.0000
   135 C22     12.5351  23.3394   4.5148   C.3       5 RES5   0.0000
   136 C23     12.8429  22.9874   3.2049   C.2       5 RES5   0.0000
   137 C24     14.0939  22.0165   0.7990   C.1       5 RES5   0.0000
   138 C25     14.0820  20.9013   0.5639   C.1       5 RES5   0.0000
   139 C26     14.1908  19.3689   0.3790   C.3       5 RES5   0.0000
   140 C27     13.2780  18.5510   1.0210   C.3       5 RES5   0.0000
   141 C28     13.2829  18.8970  -0.2530   C.3       5 RES5   0.0000
   142 H10     15.4368  26.3719   2.6450   H         5 RES5   0.0000
   143 H11     14.3720  25.9248   4.7519   H         5 RES5   0.0000
   144 H12     12.8800  24.6948   5.9788   H         5 RES5   0.0000
   145 H13     12.4540  22.2373   2.8189   H         5 RES5   0.0000
   146 H14     15.0858  19.0011   0.2180   H         5 RES5   0.0000
   147 H15     13.5490  17.6509   1.2540   H         5 RES5   0.0000
   148 H16     12.6240  18.9600   1.6079   H         5 RES5   0.0000
   149 H17     13.5040  18.2069  -0.8960   H         5 RES5   0.0000
   150 H18     12.5870  19.5050  -0.5460   H         5 RES5   0.0000
   151 Cl2      3.0618  18.5856   4.2670   Cl        6 RES6   0.0000
   152 F4       3.3767  17.3474   9.3828   F         6 RES6   0.0000
   153 C15      5.5885  17.4614   8.6618   C.3       6 RES6   0.0000
   154 C16      4.5716  16.8343   9.6338   C.3       6 RES6   0.0000
   155 F5       4.4907  15.5253   9.4208   F         6 RES6   0.0000
   156 O3       6.8835  16.8665   9.0488   O.3       6 RES6   0.0000
   157 F6       4.9036  17.0363  10.8618   F         6 RES6   0.0000
   158 O4       8.2794  15.1711   9.0608   O.2       6 RES6   0.0000
   159 C17      7.3413  15.7052   8.4958   C.2       6 RES6   0.0000
   160 N2       6.7765  15.2992   7.3738   N.am      6 RES6   0.0000
   161 C18      5.8315  16.0163   6.6278   C.2       6 RES6   0.0000
   162 C19      5.2906  17.1503   7.2329   C.2       6 RES6   0.0000
   163 C20      5.5385  15.7131   5.3569   C.2       6 RES6   0.0000
   164 C21      4.6676  16.4474   4.6139   C.2       6 RES6   0.0000
   165 C22      4.1097  17.5596   5.2050   C.3       6 RES6   0.0000
   166 C23      4.4176  17.9116   6.5149   C.2       6 RES6   0.0000
   167 C24      5.6686  18.8825   8.9208   C.1       6 RES6   0.0000
   168 C25      5.6566  19.9977   9.1559   C.1       6 RES6   0.0000
   169 C26      5.7655  21.5301   9.3408   C.3       6 RES6   0.0000
   170 C27      4.8527  22.3480   8.6988   C.3       6 RES6   0.0000
   171 C28      4.8576  22.0020   9.9728   C.3       6 RES6   0.0000
   172 H10      7.0114  14.5271   7.0748   H         6 RES6   0.0000
   173 H11      5.9466  14.9742   4.9679   H         6 RES6   0.0000
   174 H12      4.4547  16.2042   3.7410   H         6 RES6   0.0000
   175 H13      4.0287  18.6617   6.9009   H         6 RES6   0.0000
   176 H14      6.6604  21.8979   9.5018   H         6 RES6   0.0000
   177 H15      5.1236  23.2481   8.4658   H         6 RES6   0.0000
   178 H16      4.1987  21.9390   8.1119   H         6 RES6   0.0000
   179 H17      5.0786  22.6921  10.6158   H         6 RES6   0.0000
   180 H18      4.1616  21.3940  10.2658   H         6 RES6   0.0000
   181 Cl2      5.3636   4.9526   5.4528   Cl        7 RES7   0.0000
   182 F4       5.0486   3.7144   0.3370   F         7 RES7   0.0000
   183 C15      2.8368   3.8284   1.0580   C.3       7 RES7   0.0000
   184 C16      3.8538   3.2013   0.0860   C.3       7 RES7   0.0000
   185 F5       3.9346   1.8923   0.2990   F         7 RES7   0.0000
   186 O3       1.5418   3.2335   0.6710   O.3       7 RES7   0.0000
   187 F6       3.5218   3.4033  -1.1420   F         7 RES7   0.0000
   188 O4       0.1459   1.5381   0.6590   O.2       7 RES7   0.0000
   189 C17      1.0840   2.0722   1.2240   C.2       7 RES7   0.0000
   190 N2       1.6488   1.6662   2.3460   N.am      7 RES7   0.0000
   191 C18      2.5938   2.3833   3.0920   C.2       7 RES7   0.0000
   192 C19      3.1347   3.5173   2.4869   C.2       7 RES7   0.0000
   193 C20      2.8869   2.0801   4.3629   C.2       7 RES7   0.0000
   194 C21      3.7577   2.8144   5.1059   C.2       7 RES7   0.0000
   195 C22      4.3156   3.9266   4.5148   C.3       7 RES7   0.0000
   196 C23      4.0078   4.2786   3.2049   C.2       7 RES7   0.0000
   197 C24      2.7568   5.2495   0.7990   C.1       7 RES7   0.0000
   198 C25      2.7687   6.3647   0.5639   C.1       7 RES7   0.0000
   199 C26      2.6599   7.8971   0.3790   C.3       7 RES7   0.0000
   200 C27      3.5727   8.7150   1.0210   C.3       7 RES7   0.0000
   201 C28      3.5678   8.3690  -0.2530   C.3       7 RES7   0.0000
   202 H10      1.4139   0.8941   2.6450   H         7 RES7   0.0000
   203 H11      2.4787   1.3412   4.7519   H         7 RES7   0.0000
   204 H12      3.9707   2.5712   5.9788   H         7 RES7   0.0000
   205 H13      4.3967   5.0287   2.8189   H         7 RES7   0.0000
   206 H14      1.7649   8.2649   0.2180   H         7 RES7   0.0000
   207 H15      3.3017   9.6151   1.2540   H         7 RES7   0.0000
   208 H16      4.2267   8.3060   1.6079   H         7 RES7   0.0000
   209 H17      3.3467   9.0591  -0.8960   H         7 RES7   0.0000
   210 H18      4.2637   7.7610  -0.5460   H         7 RES7   0.0000
   211 Cl2     13.7889   8.6804   4.2670   Cl        8 RES8   0.0000
   212 F4      13.4740   9.9186   9.3828   F         8 RES8   0.0000
   213 C15     11.2622   9.8046   8.6618   C.3       8 RES8   0.0000
   214 C16     12.2791  10.4317   9.6338   C.3       8 RES8   0.0000
   215 F5      12.3600  11.7407   9.4208   F         8 RES8   0.0000
   216 O3       9.9672  10.3995   9.0488   O.3       8 RES8   0.0000
   217 F6      11.9471  10.2297  10.8618   F         8 RES8   0.0000
   218 O4       8.5713  12.0949   9.0608   O.2       8 RES8   0.0000
   219 C17      9.5094  11.5608   8.4958   C.2       8 RES8   0.0000
   220 N2      10.0742  11.9668   7.3738   N.am      8 RES8   0.0000
   221 C18     11.0192  11.2497   6.6278   C.2       8 RES8   0.0000
   222 C19     11.5601  10.1157   7.2329   C.2       8 RES8   0.0000
   223 C20     11.3122  11.5529   5.3569   C.2       8 RES8   0.0000
   224 C21     12.1831  10.8186   4.6139   C.2       8 RES8   0.0000
   225 C22     12.7410   9.7064   5.2050   C.3       8 RES8   0.0000
   226 C23     12.4331   9.3544   6.5149   C.2       8 RES8   0.0000
   227 C24     11.1821   8.3835   8.9208   C.1       8 RES8   0.0000
   228 C25     11.1941   7.2683   9.1559   C.1       8 RES8   0.0000
   229 C26     11.0852   5.7359   9.3408   C.3       8 RES8   0.0000
   230 C27     11.9980   4.9180   8.6988   C.3       8 RES8   0.0000
   231 C28     11.9931   5.2640   9.9728   C.3       8 RES8   0.0000
   232 H10      9.8393  12.7389   7.0748   H         8 RES8   0.0000
   233 H11     10.9041  12.2918   4.9679   H         8 RES8   0.0000
   234 H12     12.3960  11.0618   3.7410   H         8 RES8   0.0000
   235 H13     12.8220   8.6043   6.9009   H         8 RES8   0.0000
   236 H14     10.1903   5.3681   9.5018   H         8 RES8   0.0000
   237 H15     11.7271   4.0179   8.4658   H         8 RES8   0.0000
   238 H16     12.6520   5.3270   8.1119   H         8 RES8   0.0000
   239 H17     11.7721   4.5739  10.6158   H         8 RES8   0.0000
   240 H18     12.6891   5.8720  10.2658   H         8 RES8   0.0000
   241 Cl3      7.0094  -2.0283  11.8276   Cl        9 RES9   0.0000
   242 F7       4.6476  -1.1501   5.2879   F         9 RES9   0.0000
   243 C29      4.6107  -0.3760   7.5178   C.3       9 RES9   0.0000
   244 C30      4.6227  -1.5411   6.5498   C.3       9 RES9   0.0000
   245 F8       5.7195  -2.2933   6.7118   F         9 RES9   0.0000
   246 O5       3.4517   0.3850   7.1748   O.3       9 RES9   0.0000
   247 F9       3.5897  -2.3362   6.7139   F         9 RES9   0.0000
   248 O6       1.2648   0.6871   7.2239   O.2       9 RES9   0.0000
   249 C31      2.2149   0.1530   7.7148   C.2       9 RES9   0.0000
   250 N3       2.1877  -0.6271   8.8078   N.am      9 RES9   0.0000
   251 C32      3.3157  -1.0331   9.5107   C.2       9 RES9   0.0000
   252 C33      4.5416  -0.8831   8.9277   C.2       9 RES9   0.0000
   253 C34      3.1718  -1.5321  10.7997   C.2       9 RES9   0.0000
   254 C35      4.2897  -1.8353  11.4857   C.2       9 RES9   0.0000
   255 C36      5.5466  -1.6523  10.9367   C.3       9 RES9   0.0000
   256 C37      5.6755  -1.1591   9.6467   C.2       9 RES9   0.0000
   257 C38      5.7365   0.4911   7.2628   C.1       9 RES9   0.0000
   258 C39      6.7494   1.3742   7.3868   C.1       9 RES9   0.0000
   259 C40      7.9453   2.4894   7.1148   C.3       9 RES9   0.0000
   260 C41      7.5543   3.7684   7.5518   C.3       9 RES9   0.0000
   261 C42      8.1714   2.9834   8.6017   C.3       9 RES9   0.0000
   262 H19      1.4198  -0.8921   9.0928   H         9 RES9   0.0000
   263 H20      2.3298  -1.6553  11.1757   H         9 RES9   0.0000
   264 H21      4.2137  -2.1764  12.3476   H         9 RES9   0.0000
   265 H22      6.5165  -1.0200   9.2758   H         9 RES9   0.0000
   266 H        8.7616   2.3255   6.4129   H         9 RES9   0.0000
   267 H        6.4915   3.9948   7.6235   H         9 RES9   0.0000
   268 H        8.0856   4.6379   7.1674   H         9 RES9   0.0000
   269 H        9.1701   3.2235   8.9636   H         9 RES9   0.0000
   270 H        7.5760   2.5805   9.4197   H         9 RES9   0.0000
   271 Cl3     15.4347  15.6613  -2.1078   Cl       10 RES10   0.0000
   272 F7      13.0729  14.7831   4.4319   F        10 RES10   0.0000
   273 C29     13.0360  14.0090   2.2020   C.3      10 RES10   0.0000
   274 C30     13.0480  15.1741   3.1700   C.3      10 RES10   0.0000
   275 F8      14.1448  15.9263   3.0080   F        10 RES10   0.0000
   276 O5      11.8770  13.2480   2.5450   O.3      10 RES10   0.0000
   277 F9      12.0151  15.9692   3.0059   F        10 RES10   0.0000
   278 O6       9.6902  12.9459   2.4959   O.2      10 RES10   0.0000
   279 C31     10.6402  13.4800   2.0050   C.2      10 RES10   0.0000
   280 N3      10.6131  14.2601   0.9120   N.am     10 RES10   0.0000
   281 C32     11.7411  14.6661   0.2091   C.2      10 RES10   0.0000
   282 C33     12.9670  14.5161   0.7921   C.2      10 RES10   0.0000
   283 C34     11.5972  15.1651  -1.0799   C.2      10 RES10   0.0000
   284 C35     12.7150  15.4683  -1.7659   C.2      10 RES10   0.0000
   285 C36     13.9719  15.2853  -1.2169   C.3      10 RES10   0.0000
   286 C37     14.1008  14.7921   0.0731   C.2      10 RES10   0.0000
   287 C38     14.1618  13.1419   2.4570   C.1      10 RES10   0.0000
   288 C39     15.1747  12.2588   2.3330   C.1      10 RES10   0.0000
   289 C40     16.3706  11.1436   2.6050   C.3      10 RES10   0.0000
   290 C41     15.9797   9.8646   2.1680   C.3      10 RES10   0.0000
   291 C42     16.5968  10.6496   1.1181   C.3      10 RES10   0.0000
   292 H19      9.8452  14.5251   0.6270   H        10 RES10   0.0000
   293 H20     10.7551  15.2883  -1.4559   H        10 RES10   0.0000
   294 H21     12.6390  15.8094  -2.6278   H        10 RES10   0.0000
   295 H22     14.9419  14.6530   0.4440   H        10 RES10   0.0000
   296 H       17.1869  11.3075   3.3069   H        10 RES10   0.0000
   297 H       14.9169   9.6382   2.0963   H        10 RES10   0.0000
   298 H       16.5109   8.9951   2.5524   H        10 RES10   0.0000
   299 H       17.5954  10.4095   0.7562   H        10 RES10   0.0000
   300 H       16.0014  11.0525   0.3001   H        10 RES10   0.0000
   301 Cl3      9.8413  29.2943  11.8276   Cl       11 RES11   0.0000
   302 F7      12.2031  28.4161   5.2879   F        11 RES11   0.0000
   303 C29     12.2400  27.6420   7.5178   C.3      11 RES11   0.0000
   304 C30     12.2280  28.8071   6.5498   C.3      11 RES11   0.0000
   305 F8      11.1312  29.5593   6.7118   F        11 RES11   0.0000
   306 O5      13.3990  26.8810   7.1748   O.3      11 RES11   0.0000
   307 F9      13.2610  29.6022   6.7139   F        11 RES11   0.0000
   308 O6      15.5859  26.5789   7.2239   O.2      11 RES11   0.0000
   309 C31     14.6358  27.1130   7.7148   C.2      11 RES11   0.0000
   310 N3      14.6630  27.8931   8.8078   N.am     11 RES11   0.0000
   311 C32     13.5350  28.2991   9.5107   C.2      11 RES11   0.0000
   312 C33     12.3091  28.1491   8.9277   C.2      11 RES11   0.0000
   313 C34     13.6789  28.7981  10.7997   C.2      11 RES11   0.0000
   314 C35     12.5610  29.1013  11.4857   C.2      11 RES11   0.0000
   315 C36     11.3041  28.9183  10.9367   C.3      11 RES11   0.0000
   316 C37     11.1752  28.4251   9.6467   C.2      11 RES11   0.0000
   317 C38     11.1142  26.7749   7.2628   C.1      11 RES11   0.0000
   318 C39     10.1013  25.8918   7.3868   C.1      11 RES11   0.0000
   319 C40      8.9054  24.7766   7.1148   C.3      11 RES11   0.0000
   320 C41      9.2964  23.4976   7.5518   C.3      11 RES11   0.0000
   321 C42      8.6793  24.2826   8.6017   C.3      11 RES11   0.0000
   322 H19     15.4309  28.1581   9.0928   H        11 RES11   0.0000
   323 H20     14.5209  28.9213  11.1757   H        11 RES11   0.0000
   324 H21     12.6370  29.4424  12.3476   H        11 RES11   0.0000
   325 H22     10.3342  28.2860   9.2758   H        11 RES11   0.0000
   326 H        8.0891  24.9405   6.4129   H        11 RES11   0.0000
   327 H       10.3592  23.2712   7.6235   H        11 RES11   0.0000
   328 H        8.7651  22.6281   7.1674   H        11 RES11   0.0000
   329 H        7.6806  24.0425   8.9636   H        11 RES11   0.0000
   330 H        9.2747  24.6855   9.4197   H        11 RES11   0.0000
   331 Cl3      1.4160  11.6047  -2.1078   Cl       12 RES12   0.0000
   332 F7       3.7778  12.4829   4.4319   F        12 RES12   0.0000
   333 C29      3.8147  13.2570   2.2020   C.3      12 RES12   0.0000
   334 C30      3.8027  12.0919   3.1700   C.3      12 RES12   0.0000
   335 F8       2.7059  11.3397   3.0080   F        12 RES12   0.0000
   336 O5       4.9737  14.0180   2.5450   O.3      12 RES12   0.0000
   337 F9       4.8356  11.2968   3.0059   F        12 RES12   0.0000
   338 O6       7.1605  14.3201   2.4959   O.2      12 RES12   0.0000
   339 C31      6.2105  13.7860   2.0050   C.2      12 RES12   0.0000
   340 N3       6.2376  13.0059   0.9120   N.am     12 RES12   0.0000
   341 C32      5.1096  12.5999   0.2091   C.2      12 RES12   0.0000
   342 C33      3.8837  12.7499   0.7921   C.2      12 RES12   0.0000
   343 C34      5.2535  12.1009  -1.0799   C.2      12 RES12   0.0000
   344 C35      4.1357  11.7977  -1.7659   C.2      12 RES12   0.0000
   345 C36      2.8788  11.9807  -1.2169   C.3      12 RES12   0.0000
   346 C37      2.7499  12.4739   0.0731   C.2      12 RES12   0.0000
   347 C38      2.6889  14.1241   2.4570   C.1      12 RES12   0.0000
   348 C39      1.6760  15.0072   2.3330   C.1      12 RES12   0.0000
   349 C40      0.4801  16.1224   2.6050   C.3      12 RES12   0.0000
   350 C41      0.8710  17.4014   2.1680   C.3      12 RES12   0.0000
   351 C42      0.2539  16.6164   1.1181   C.3      12 RES12   0.0000
   352 H19      7.0055  12.7409   0.6270   H        12 RES12   0.0000
   353 H20      6.0956  11.9777  -1.4559   H        12 RES12   0.0000
   354 H21      4.2117  11.4566  -2.6278   H        12 RES12   0.0000
   355 H22      1.9088  12.6130   0.4440   H        12 RES12   0.0000
   356 H       -0.3362  15.9585   3.3069   H        12 RES12   0.0000
   357 H        1.9338  17.6278   2.0963   H        12 RES12   0.0000
   358 H        0.3398  18.2709   2.5524   H        12 RES12   0.0000
   359 H       -0.7447  16.8565   0.7562   H        12 RES12   0.0000
   360 H        0.8493  16.2135   0.3001   H        12 RES12   0.0000
@<TRIPOS>BOND
     1     1    15    1
     2     2     4    1
     3     3     4    1
     4     3     6    1
     5     3    12    1
     6     3    17    1
     7     4     5    1
     8     4     7    1
     9     6     9    1
    10     8     9    2
    11     9    10   un
    12    10    11   un
    13    10    22    1
    14    11    12   un
    15    11    13   un
    16    12    16   un
    17    13    14   un
    18    13    23    1
    19    14    15    1
    20    14    24    1
    21    15    16    1
    22    16    25    1
    23    17    18   un
    24    18    19    1
    25    19    20    1
    26    19    21    1
    27    19    26    1
    28    20    21    1
    29    20    27    1
    30    20    28    1
    31    21    29    1
    32    21    30    1
    33    31    45    1
    34    32    34    1
    35    33    34    1
    36    33    36    1
    37    33    42    1
    38    33    47    1
    39    34    35    1
    40    34    37    1
    41    36    39    1
    42    38    39    2
    43    39    40   un
    44    40    41   un
    45    40    52    1
    46    41    42   un
    47    41    43   un
    48    42    46   un
    49    43    44   un
    50    43    53    1
    51    44    45    1
    52    44    54    1
    53    45    46    1
    54    46    55    1
    55    47    48   un
    56    48    49    1
    57    49    50    1
    58    49    51    1
    59    49    56    1
    60    50    51    1
    61    50    57    1
    62    50    58    1
    63    51    59    1
    64    51    60    1
    65    61    75    1
    66    62    64    1
    67    63    64    1
    68    63    66    1
    69    63    72    1
    70    63    77    1
    71    64    65    1
    72    64    67    1
    73    66    69    1
    74    68    69    2
    75    69    70   un
    76    70    71   un
    77    70    82    1
    78    71    72   un
    79    71    73   un
    80    72    76   un
    81    73    74   un
    82    73    83    1
    83    74    75    1
    84    74    84    1
    85    75    76    1
    86    76    85    1
    87    77    78   un
    88    78    79    1
    89    79    80    1
    90    79    81    1
    91    79    86    1
    92    80    81    1
    93    80    87    1
    94    80    88    1
    95    81    89    1
    96    81    90    1
    97    91   105    1
    98    92    94    1
    99    93    94    1
   100    93    96    1
   101    93   102    1
   102    93   107    1
   103    94    95    1
   104    94    97    1
   105    96    99    1
   106    98    99    2
   107    99   100   un
   108   100   101   un
   109   100   112    1
   110   101   102   un
   111   101   103   un
   112   102   106   un
   113   103   104   un
   114   103   113    1
   115   104   105    1
   116   104   114    1
   117   105   106    1
   118   106   115    1
   119   107   108   un
   120   108   109    1
   121   109   110    1
   122   109   111    1
   123   109   116    1
   124   110   111    1
   125   110   117    1
   126   110   118    1
   127   111   119    1
   128   111   120    1
   129   121   135    1
   130   122   124    1
   131   123   124    1
   132   123   126    1
   133   123   132    1
   134   123   137    1
   135   124   125    1
   136   124   127    1
   137   126   129    1
   138   128   129    2
   139   129   130   un
   140   130   131   un
   141   130   142    1
   142   131   132   un
   143   131   133   un
   144   132   136   un
   145   133   134   un
   146   133   143    1
   147   134   135    1
   148   134   144    1
   149   135   136    1
   150   136   145    1
   151   137   138   un
   152   138   139    1
   153   139   140    1
   154   139   141    1
   155   139   146    1
   156   140   141    1
   157   140   147    1
   158   140   148    1
   159   141   149    1
   160   141   150    1
   161   151   165    1
   162   152   154    1
   163   153   154    1
   164   153   156    1
   165   153   162    1
   166   153   167    1
   167   154   155    1
   168   154   157    1
   169   156   159    1
   170   158   159    2
   171   159   160   un
   172   160   161   un
   173   160   172    1
   174   161   162   un
   175   161   163   un
   176   162   166   un
   177   163   164   un
   178   163   173    1
   179   164   165    1
   180   164   174    1
   181   165   166    1
   182   166   175    1
   183   167   168   un
   184   168   169    1
   185   169   170    1
   186   169   171    1
   187   169   176    1
   188   170   171    1
   189   170   177    1
   190   170   178    1
   191   171   179    1
   192   171   180    1
   193   181   195    1
   194   182   184    1
   195   183   184    1
   196   183   186    1
   197   183   192    1
   198   183   197    1
   199   184   185    1
   200   184   187    1
   201   186   189    1
   202   188   189    2
   203   189   190   un
   204   190   191   un
   205   190   202    1
   206   191   192   un
   207   191   193   un
   208   192   196   un
   209   193   194   un
   210   193   203    1
   211   194   195    1
   212   194   204    1
   213   195   196    1
   214   196   205    1
   215   197   198   un
   216   198   199    1
   217   199   200    1
   218   199   201    1
   219   199   206    1
   220   200   201    1
   221   200   207    1
   222   200   208    1
   223   201   209    1
   224   201   210    1
   225   211   225    1
   226   212   214    1
   227   213   214    1
   228   213   216    1
   229   213   222    1
   230   213   227    1
   231   214   215    1
   232   214   217    1
   233   216   219    1
   234   218   219    2
   235   219   220   un
   236   220   221   un
   237   220   232    1
   238   221   222   un
   239   221   223   un
   240   222   226   un
   241   223   224   un
   242   223   233    1
   243   224   225    1
   244   224   234    1
   245   225   226    1
   246   226   235    1
   247   227   228   un
   248   228   229    1
   249   229   230    1
   250   229   231    1
   251   229   236    1
   252   230   231    1
   253   230   237    1
   254   230   238    1
   255   231   239    1
   256   231   240    1
   257   241   255    1
   258   242   244    1
   259   243   244    1
   260   243   246    1
   261   243   252    1
   262   243   257    1
   263   244   245    1
   264   244   247    1
   265   246   249    1
   266   248   249    2
   267   249   250   un
   268   250   251   un
   269   250   262    1
   270   251   252   un
   271   251   253   un
   272   252   256   un
   273   253   254   un
   274   253   263    1
   275   254   255    1
   276   254   264    1
   277   255   256    1
   278   256   265    1
   279   257   258   un
   280   258   259    1
   281   259   260    1
   282   259   261    1
   283   259   266    1
   284   260   261    1
   285   260   267    1
   286   260   268    1
   287   261   269    1
   288   261   270    1
   289   271   285    1
   290   272   274    1
   291   273   274    1
   292   273   276    1
   293   273   282    1
   294   273   287    1
   295   274   275    1
   296   274   277    1
   297   276   279    1
   298   278   279    2
   299   279   280   un
   300   280   281   un
   301   280   292    1
   302   281   282   un
   303   281   283   un
   304   282   286   un
   305   283   284   un
   306   283   293    1
   307   284   285    1
   308   284   294    1
   309   285   286    1
   310   286   295    1
   311   287   288   un
   312   288   289    1
   313   289   290    1
   314   289   291    1
   315   289   296    1
   316   290   291    1
   317   290   297    1
   318   290   298    1
   319   291   299    1
   320   291   300    1
   321   301   315    1
   322   302   304    1
   323   303   304    1
   324   303   306    1
   325   303   312    1
   326   303   317    1
   327   304   305    1
   328   304   307    1
   329   306   309    1
   330   308   309    2
   331   309   310   un
   332   310   311   un
   333   310   322    1
   334   311   312   un
   335   311   313   un
   336   312   316   un
   337   313   314   un
   338   313   323    1
   339   314   315    1
   340   314   324    1
   341   315   316    1
   342   316   325    1
   343   317   318   un
   344   318   319    1
   345   319   320    1
   346   319   321    1
   347   319   326    1
   348   320   321    1
   349   320   327    1
   350   320   328    1
   351   321   329    1
   352   321   330    1
   353   331   345    1
   354   332   334    1
   355   333   334    1
   356   333   336    1
   357   333   342    1
   358   333   347    1
   359   334   335    1
   360   334   337    1
   361   336   339    1
   362   338   339    2
   363   339   340   un
   364   340   341   un
   365   340   352    1
   366   341   342   un
   367   341   343   un
   368   342   346   un
   369   343   344   un
   370   343   353    1
   371   344   345    1
   372   344   354    1
   373   345   346    1
   374   346   355    1
   375   347   348   un
   376   348   349    1
   377   349   350    1
   378   349   351    1
   379   349   356    1
   380   350   351    1
   381   350   357    1
   382   350   358    1
   383   351   359    1
   384   351   360    1
@<TRIPOS>SUBSTRUCTURE
     1 RES1        1 GROUP             0 ****  ****    0  
     2 RES2       31 GROUP             0 ****  ****    0  
     3 RES3       61 GROUP             0 ****  ****    0  
     4 RES4       91 GROUP             0 ****  ****    0  
     5 RES5      121 GROUP             0 ****  ****    0  
     6 RES6      151 GROUP             0 ****  ****    0  
     7 RES7      181 GROUP             0 ****  ****    0  
     8 RES8      211 GROUP             0 ****  ****    0  
     9 RES9      241 GROUP             0 ****  ****    0  
    10 RES10     271 GROUP             0 ****  ****    0  
    11 RES11     301 GROUP             0 ****  ****    0  
    12 RES12     331 GROUP             0 ****  ****    0  
@<TRIPOS>CRYSIN
   16.8507   27.2660    9.7198   90.0000   90.0000   90.0000    18     1
