@<TRIPOS>MOLECULE
temp_mol.xyz
372 408 12
SMALL
GASTEIGER
*****
generated using ZMC relabeler v2.0

@<TRIPOS>ATOM
   1 C1 14.8614 4.7660 5.1192 C.3 1 RES1 0.0000
   2 CL2 15.5379 7.3749 8.4277 Cl 1 RES1 -0.0835
   3 C3 15.8058 5.8706 7.5748 C.ar 1 RES1 0.0415
   4 C4 16.5368 4.8724 8.1598 C.ar 1 RES1 -0.0416
   5 C5 15.1988 5.7076 6.3298 C.ar 1 RES1 -0.0334
   6 C6 16.6967 3.6845 7.5038 C.ar 1 RES1 -0.0386
   7 H7 16.9206 5.0036 8.9967 H 1 RES1 0.0633
   8 C8 15.4108 4.5234 5.6719 C.ar 1 RES1 0.0397
   9 H9 14.6719 6.3789 5.9588 H 1 RES1 0.0637
   10 C10 16.1538 3.5124 6.2438 C.ar 1 RES1 0.0448
   11 H11 17.1707 2.9914 7.9048 H 1 RES1 0.0637
   12 C12 14.8059 4.3056 4.3049 C.3 1 RES1 0.2958
   13 N13 16.2938 2.3042 5.5838 N.am 1 RES1 -0.2507
   14 C14 15.6888 4.9027 3.2289 C.3 1 RES1 0.4460
   15 O15 14.7789 2.8995 3.9579 O.3 1 RES1 -0.4168
   16 C16 13.4529 4.8105 4.1929 C.1 1 RES1 -0.0407
   17 C17 15.6098 1.9302 4.4809 C.2 1 RES1 0.4065
   18 H18 16.8637 1.7453 5.9028 H 1 RES1 0.1582
   19 F19 16.9547 4.4484 3.2999 F 1 RES1 -0.1654
   20 F20 15.2598 4.6805 1.9890 F 1 RES1 -0.1654
   21 F21 15.7888 6.2406 3.3669 F 1 RES1 -0.1654
   22 C22 12.4050 5.2547 4.1409 C.1 1 RES1 -0.0943
   23 O23 15.6187 0.8630 3.9709 O.2 1 RES1 -0.2261
   24 C24 11.0172 5.7188 3.9559 C.3 1 RES1 0.0209
   25 C25 10.6882 6.7058 4.4318 C.3 1 RES1 -0.0382
   26 C26 10.0073 5.7188 4.4809 C.3 1 RES1 -0.0382
   27 H27 10.8522 5.7837 2.9909 H 1 RES1 0.0433
   28 H28 10.4072 7.4229 3.8429 H 1 RES1 0.0277
   29 H29 11.1351 6.9888 5.2438 H 1 RES1 0.0277
   30 H30 9.9372 5.2547 5.3278 H 1 RES1 0.0277
   31 H31 9.2092 5.6888 3.9279 H 1 RES1 0.0277
   32 C1 6.4361 8.8670 4.6006 C.3 2 RES2 0.0000
   33 CL2 7.1125 6.2581 1.2921 Cl 2 RES2 -0.0835
   34 C3 7.3804 7.7624 2.1450 C.ar 2 RES2 0.0415
   35 C4 8.1114 8.7606 1.5600 C.ar 2 RES2 -0.0416
   36 C5 6.7735 7.9254 3.3900 C.ar 2 RES2 -0.0334
   37 C6 8.2713 9.9485 2.2160 C.ar 2 RES2 -0.0386
   38 H7 8.4953 8.6294 0.7231 H 2 RES2 0.0633
   39 C8 6.9855 9.1096 4.0479 C.ar 2 RES2 0.0397
   40 H9 6.2466 7.2541 3.7610 H 2 RES2 0.0637
   41 C10 7.7284 10.1206 3.4760 C.ar 2 RES2 0.0448
   42 H11 8.7453 10.6416 1.8150 H 2 RES2 0.0637
   43 C12 6.3805 9.3274 5.4149 C.3 2 RES2 0.2958
   44 N13 7.8684 11.3288 4.1360 N.am 2 RES2 -0.2507
   45 C14 7.2635 8.7303 6.4909 C.3 2 RES2 0.4460
   46 O15 6.3536 10.7335 5.7619 O.3 2 RES2 -0.4168
   47 C16 5.0276 8.8225 5.5269 C.1 2 RES2 -0.0407
   48 C17 7.1845 11.7028 5.2389 C.2 2 RES2 0.4065
   49 H18 8.4383 11.8877 3.8170 H 2 RES2 0.1582
   50 F19 8.5293 9.1846 6.4199 F 2 RES2 -0.1654
   51 F20 6.8345 8.9525 7.7308 F 2 RES2 -0.1654
   52 F21 7.3634 7.3924 6.3529 F 2 RES2 -0.1654
   53 C22 3.9796 8.3783 5.5789 C.1 2 RES2 -0.0943
   54 O23 7.1934 12.7700 5.7489 O.2 2 RES2 -0.2261
   55 C24 2.5918 7.9142 5.7639 C.3 2 RES2 0.0209
   56 C25 2.2629 6.9272 5.2880 C.3 2 RES2 -0.0382
   57 C26 1.5819 7.9142 5.2389 C.3 2 RES2 -0.0382
   58 H27 2.4268 7.8493 6.7289 H 2 RES2 0.0433
   59 H28 1.9818 6.2101 5.8769 H 2 RES2 0.0277
   60 H29 2.7098 6.6442 4.4760 H 2 RES2 0.0277
   61 H30 1.5118 8.3783 4.3920 H 2 RES2 0.0277
   62 H31 0.7839 7.9442 5.7919 H 2 RES2 0.0277
   63 C1 1.9893 22.5000 5.1192 C.3 3 RES3 0.0000
   64 CL2 1.3128 19.8911 8.4277 Cl 3 RES3 -0.0835
   65 C3 1.0449 21.3954 7.5748 C.ar 3 RES3 0.0415
   66 C4 0.3139 22.3936 8.1598 C.ar 3 RES3 -0.0416
   67 C5 1.6519 21.5584 6.3298 C.ar 3 RES3 -0.0334
   68 C6 0.1540 23.5815 7.5038 C.ar 3 RES3 -0.0386
   69 H7 -0.0699 22.2624 8.9967 H 3 RES3 0.0633
   70 C8 1.4399 22.7426 5.6719 C.ar 3 RES3 0.0397
   71 H9 2.1788 20.8871 5.9588 H 3 RES3 0.0637
   72 C10 0.6969 23.7536 6.2438 C.ar 3 RES3 0.0448
   73 H11 -0.3200 24.2746 7.9048 H 3 RES3 0.0637
   74 C12 2.0448 22.9604 4.3049 C.3 3 RES3 0.2958
   75 N13 0.5569 24.9618 5.5838 N.am 3 RES3 -0.2507
   76 C14 1.1619 22.3633 3.2289 C.3 3 RES3 0.4460
   77 O15 2.0718 24.3665 3.9579 O.3 3 RES3 -0.4168
   78 C16 3.3978 22.4555 4.1929 C.1 3 RES3 -0.0407
   79 C17 1.2409 25.3358 4.4809 C.2 3 RES3 0.4065
   80 H18 -0.0130 25.5207 5.9028 H 3 RES3 0.1582
   81 F19 -0.1040 22.8176 3.2999 F 3 RES3 -0.1654
   82 F20 1.5909 22.5855 1.9890 F 3 RES3 -0.1654
   83 F21 1.0619 21.0254 3.3669 F 3 RES3 -0.1654
   84 C22 4.4457 22.0113 4.1409 C.1 3 RES3 -0.0943
   85 O23 1.2320 26.4030 3.9709 O.2 3 RES3 -0.2261
   86 C24 5.8335 21.5472 3.9559 C.3 3 RES3 0.0209
   87 C25 6.1625 20.5602 4.4318 C.3 3 RES3 -0.0382
   88 C26 6.8434 21.5472 4.4809 C.3 3 RES3 -0.0382
   89 H27 5.9985 21.4823 2.9909 H 3 RES3 0.0433
   90 H28 6.4435 19.8431 3.8429 H 3 RES3 0.0277
   91 H29 5.7156 20.2772 5.2438 H 3 RES3 0.0277
   92 H30 6.9135 22.0113 5.3278 H 3 RES3 0.0277
   93 H31 7.6415 21.5772 3.9279 H 3 RES3 0.0277
   94 C1 10.4146 18.3990 4.6006 C.3 4 RES4 0.0000
   95 CL2 9.7382 21.0079 1.2921 Cl 4 RES4 -0.0835
   96 C3 9.4703 19.5036 2.1450 C.ar 4 RES4 0.0415
   97 C4 8.7393 18.5054 1.5600 C.ar 4 RES4 -0.0416
   98 C5 10.0772 19.3406 3.3900 C.ar 4 RES4 -0.0334
   99 C6 8.5794 17.3175 2.2160 C.ar 4 RES4 -0.0386
   100 H7 8.3554 18.6366 0.7231 H 4 RES4 0.0633
   101 C8 9.8652 18.1564 4.0479 C.ar 4 RES4 0.0397
   102 H9 10.6041 20.0119 3.7610 H 4 RES4 0.0637
   103 C10 9.1223 17.1454 3.4760 C.ar 4 RES4 0.0448
   104 H11 8.1054 16.6244 1.8150 H 4 RES4 0.0637
   105 C12 10.4702 17.9386 5.4149 C.3 4 RES4 0.2958
   106 N13 8.9823 15.9372 4.1360 N.am 4 RES4 -0.2507
   107 C14 9.5872 18.5357 6.4909 C.3 4 RES4 0.4460
   108 O15 10.4971 16.5325 5.7619 O.3 4 RES4 -0.4168
   109 C16 11.8231 18.4435 5.5269 C.1 4 RES4 -0.0407
   110 C17 9.6662 15.5632 5.2389 C.2 4 RES4 0.4065
   111 H18 8.4124 15.3783 3.8170 H 4 RES4 0.1582
   112 F19 8.3214 18.0814 6.4199 F 4 RES4 -0.1654
   113 F20 10.0162 18.3135 7.7308 F 4 RES4 -0.1654
   114 F21 9.4873 19.8736 6.3529 F 4 RES4 -0.1654
   115 C22 12.8711 18.8877 5.5789 C.1 4 RES4 -0.0943
   116 O23 9.6573 14.4960 5.7489 O.2 4 RES4 -0.2261
   117 C24 14.2589 19.3518 5.7639 C.3 4 RES4 0.0209
   118 C25 14.5878 20.3388 5.2880 C.3 4 RES4 -0.0382
   119 C26 15.2688 19.3518 5.2389 C.3 4 RES4 -0.0382
   120 H27 14.4239 19.4167 6.7289 H 4 RES4 0.0433
   121 H28 14.8689 21.0559 5.8769 H 4 RES4 0.0277
   122 H29 14.1409 20.6218 4.4760 H 4 RES4 0.0277
   123 H30 15.3389 18.8877 4.3920 H 4 RES4 0.0277
   124 H31 16.0668 19.3218 5.7919 H 4 RES4 0.0277
   125 C1 13.5775 23.2214 1.8622 C.3 5 RES5 0.0000
   126 CL2 11.4871 22.3134 5.4528 Cl 5 RES5 -0.0835
   127 C3 12.5351 23.3394 4.5148 C.ar 5 RES5 0.0415
   128 C4 13.0930 24.4516 5.1059 C.ar 5 RES5 -0.0416
   129 C5 12.8429 22.9874 3.2049 C.ar 5 RES5 -0.0334
   130 C6 13.9638 25.1859 4.3629 C.ar 5 RES5 -0.0386
   131 H7 12.8800 24.6948 5.9788 H 5 RES5 0.0633
   132 C8 13.7160 23.7487 2.4869 C.ar 5 RES5 0.0397
   133 H9 12.4540 22.2373 2.8189 H 5 RES5 0.0637
   134 C10 14.2569 24.8827 3.0920 C.ar 5 RES5 0.0448
   135 H11 14.3720 25.9248 4.7519 H 5 RES5 0.0637
   136 C12 14.0139 23.4376 1.0580 C.3 5 RES5 0.2958
   137 N13 15.2019 25.5998 2.3460 N.am 5 RES5 -0.2507
   138 C14 12.9969 24.0647 0.0860 C.3 5 RES5 0.4460
   139 O15 15.3089 24.0325 0.6710 O.3 5 RES5 -0.4168
   140 C16 14.0939 22.0165 0.7990 C.1 5 RES5 -0.0407
   141 C17 15.7667 25.1938 1.2240 C.2 5 RES5 0.4065
   142 H18 15.4368 26.3719 2.6450 H 5 RES5 0.1582
   143 F19 11.8021 23.5516 0.3370 F 5 RES5 -0.1654
   144 F20 12.9161 25.3737 0.2990 F 5 RES5 -0.1654
   145 F21 13.3289 23.8627 -1.1420 F 5 RES5 -0.1654
   146 C22 14.0820 20.9013 0.5639 C.1 5 RES5 -0.0943
   147 O23 16.7048 25.7279 0.6590 O.2 5 RES5 -0.2261
   148 C24 14.1908 19.3689 0.3790 C.3 5 RES5 0.0209
   149 C25 13.2780 18.5510 1.0210 C.3 5 RES5 -0.0382
   150 C26 13.2829 18.8970 -0.2530 C.3 5 RES5 -0.0382
   151 H27 15.0858 19.0011 0.2180 H 5 RES5 0.0433
   152 H28 13.5490 17.6509 1.2540 H 5 RES5 0.0277
   153 H29 12.6240 18.9600 1.6079 H 5 RES5 0.0277
   154 H30 13.5040 18.2069 -0.8960 H 5 RES5 0.0277
   155 H31 12.5870 19.5050 -0.5460 H 5 RES5 0.0277
   156 C1 5.1522 17.6776 7.8576 C.3 6 RES6 0.0000
   157 CL2 3.0618 18.5856 4.2670 Cl 6 RES6 -0.0835
   158 C3 4.1097 17.5596 5.2050 C.ar 6 RES6 0.0415
   159 C4 4.6676 16.4474 4.6139 C.ar 6 RES6 -0.0416
   160 C5 4.4176 17.9116 6.5149 C.ar 6 RES6 -0.0334
   161 C6 5.5385 15.7131 5.3569 C.ar 6 RES6 -0.0386
   162 H7 4.4547 16.2042 3.7410 H 6 RES6 0.0633
   163 C8 5.2906 17.1503 7.2329 C.ar 6 RES6 0.0397
   164 H9 4.0287 18.6617 6.9009 H 6 RES6 0.0637
   165 C10 5.8315 16.0163 6.6278 C.ar 6 RES6 0.0448
   166 H11 5.9466 14.9742 4.9679 H 6 RES6 0.0637
   167 C12 5.5885 17.4614 8.6618 C.3 6 RES6 0.2958
   168 N13 6.7765 15.2992 7.3738 N.am 6 RES6 -0.2507
   169 C14 4.5716 16.8343 9.6338 C.3 6 RES6 0.4460
   170 O15 6.8835 16.8665 9.0488 O.3 6 RES6 -0.4168
   171 C16 5.6686 18.8825 8.9208 C.1 6 RES6 -0.0407
   172 C17 7.3413 15.7052 8.4958 C.2 6 RES6 0.4065
   173 H18 7.0114 14.5271 7.0748 H 6 RES6 0.1582
   174 F19 3.3767 17.3474 9.3828 F 6 RES6 -0.1654
   175 F20 4.4907 15.5253 9.4208 F 6 RES6 -0.1654
   176 F21 4.9036 17.0363 10.8618 F 6 RES6 -0.1654
   177 C22 5.6566 19.9977 9.1559 C.1 6 RES6 -0.0943
   178 O23 8.2794 15.1711 9.0608 O.2 6 RES6 -0.2261
   179 C24 5.7655 21.5301 9.3408 C.3 6 RES6 0.0209
   180 C25 4.8527 22.3480 8.6988 C.3 6 RES6 -0.0382
   181 C26 4.8576 22.0020 9.9728 C.3 6 RES6 -0.0382
   182 H27 6.6604 21.8979 9.5018 H 6 RES6 0.0433
   183 H28 5.1236 23.2481 8.4658 H 6 RES6 0.0277
   184 H29 4.1987 21.9390 8.1119 H 6 RES6 0.0277
   185 H30 5.0786 22.6921 10.6158 H 6 RES6 0.0277
   186 H31 4.1616 21.3940 10.2658 H 6 RES6 0.0277
   187 C1 3.2732 4.0446 1.8622 C.3 7 RES7 0.0000
   188 CL2 5.3636 4.9526 5.4528 Cl 7 RES7 -0.0835
   189 C3 4.3156 3.9266 4.5148 C.ar 7 RES7 0.0415
   190 C4 3.7577 2.8144 5.1059 C.ar 7 RES7 -0.0416
   191 C5 4.0078 4.2786 3.2049 C.ar 7 RES7 -0.0334
   192 C6 2.8869 2.0801 4.3629 C.ar 7 RES7 -0.0386
   193 H7 3.9707 2.5712 5.9788 H 7 RES7 0.0633
   194 C8 3.1347 3.5173 2.4869 C.ar 7 RES7 0.0397
   195 H9 4.3967 5.0287 2.8189 H 7 RES7 0.0637
   196 C10 2.5938 2.3833 3.0920 C.ar 7 RES7 0.0448
   197 H11 2.4787 1.3412 4.7519 H 7 RES7 0.0637
   198 C12 2.8368 3.8284 1.0580 C.3 7 RES7 0.2958
   199 N13 1.6488 1.6662 2.3460 N.am 7 RES7 -0.2507
   200 C14 3.8538 3.2013 0.0860 C.3 7 RES7 0.4460
   201 O15 1.5418 3.2335 0.6710 O.3 7 RES7 -0.4168
   202 C16 2.7568 5.2495 0.7990 C.1 7 RES7 -0.0407
   203 C17 1.0840 2.0722 1.2240 C.2 7 RES7 0.4065
   204 H18 1.4139 0.8941 2.6450 H 7 RES7 0.1582
   205 F19 5.0486 3.7144 0.3370 F 7 RES7 -0.1654
   206 F20 3.9346 1.8923 0.2990 F 7 RES7 -0.1654
   207 F21 3.5218 3.4033 -1.1420 F 7 RES7 -0.1654
   208 C22 2.7687 6.3647 0.5639 C.1 7 RES7 -0.0943
   209 O23 0.1459 1.5381 0.6590 O.2 7 RES7 -0.2261
   210 C24 2.6599 7.8971 0.3790 C.3 7 RES7 0.0209
   211 C25 3.5727 8.7150 1.0210 C.3 7 RES7 -0.0382
   212 C26 3.5678 8.3690 -0.2530 C.3 7 RES7 -0.0382
   213 H27 1.7649 8.2649 0.2180 H 7 RES7 0.0433
   214 H28 3.3017 9.6151 1.2540 H 7 RES7 0.0277
   215 H29 4.2267 8.3060 1.6079 H 7 RES7 0.0277
   216 H30 3.3467 9.0591 -0.8960 H 7 RES7 0.0277
   217 H31 4.2637 7.7610 -0.5460 H 7 RES7 0.0277
   218 C1 11.6985 9.5884 7.8576 C.3 8 RES8 0.0000
   219 CL2 13.7889 8.6804 4.2670 Cl 8 RES8 -0.0835
   220 C3 12.7410 9.7064 5.2050 C.ar 8 RES8 0.0415
   221 C4 12.1831 10.8186 4.6139 C.ar 8 RES8 -0.0416
   222 C5 12.4331 9.3544 6.5149 C.ar 8 RES8 -0.0334
   223 C6 11.3122 11.5529 5.3569 C.ar 8 RES8 -0.0386
   224 H7 12.3960 11.0618 3.7410 H 8 RES8 0.0633
   225 C8 11.5601 10.1157 7.2329 C.ar 8 RES8 0.0397
   226 H9 12.8220 8.6043 6.9009 H 8 RES8 0.0637
   227 C10 11.0192 11.2497 6.6278 C.ar 8 RES8 0.0448
   228 H11 10.9041 12.2918 4.9679 H 8 RES8 0.0637
   229 C12 11.2622 9.8046 8.6618 C.3 8 RES8 0.2958
   230 N13 10.0742 11.9668 7.3738 N.am 8 RES8 -0.2507
   231 C14 12.2791 10.4317 9.6338 C.3 8 RES8 0.4460
   232 O15 9.9672 10.3995 9.0488 O.3 8 RES8 -0.4168
   233 C16 11.1821 8.3835 8.9208 C.1 8 RES8 -0.0407
   234 C17 9.5094 11.5608 8.4958 C.2 8 RES8 0.4065
   235 H18 9.8393 12.7389 7.0748 H 8 RES8 0.1582
   236 F19 13.4740 9.9186 9.3828 F 8 RES8 -0.1654
   237 F20 12.3600 11.7407 9.4208 F 8 RES8 -0.1654
   238 F21 11.9471 10.2297 10.8618 F 8 RES8 -0.1654
   239 C22 11.1941 7.2683 9.1559 C.1 8 RES8 -0.0943
   240 O23 8.5713 12.0949 9.0608 O.2 8 RES8 -0.2261
   241 C24 11.0852 5.7359 9.3408 C.3 8 RES8 0.0209
   242 C25 11.9980 4.9180 8.6988 C.3 8 RES8 -0.0382
   243 C26 11.9931 5.2640 9.9728 C.3 8 RES8 -0.0382
   244 H27 10.1903 5.3681 9.5018 H 8 RES8 0.0433
   245 H28 11.7271 4.0179 8.4658 H 8 RES8 0.0277
   246 H29 12.6520 5.3270 8.1119 H 8 RES8 0.0277
   247 H30 11.7721 4.5739 10.6158 H 8 RES8 0.0277
   248 H31 12.6891 5.8720 10.2658 H 8 RES8 0.0277
   249 C1 4.9586 -0.4665 8.4394 C.3 9 RES9 0.0000
   250 CL2 7.0094 -2.0283 11.8276 Cl 9 RES9 -0.0835
   251 C3 5.5466 -1.6523 10.9367 C.ar 9 RES9 0.0415
   252 C4 4.2897 -1.8353 11.4857 C.ar 9 RES9 -0.0416
   253 C5 5.6755 -1.1591 9.6467 C.ar 9 RES9 -0.0334
   254 C6 3.1718 -1.5321 10.7997 C.ar 9 RES9 -0.0386
   255 H7 4.2137 -2.1764 12.3476 H 9 RES9 0.0633
   256 C8 4.5416 -0.8831 8.9277 C.ar 9 RES9 0.0397
   257 H9 6.5165 -1.0200 9.2758 H 9 RES9 0.0637
   258 C10 3.3157 -1.0331 9.5107 C.ar 9 RES9 0.0448
   259 H11 2.3298 -1.6553 11.1757 H 9 RES9 0.0637
   260 C12 4.6107 -0.3760 7.5178 C.3 9 RES9 0.2958
   261 N13 2.1877 -0.6271 8.8078 N.am 9 RES9 -0.2507
   262 C14 4.6227 -1.5411 6.5498 C.3 9 RES9 0.4460
   263 O15 3.4517 0.3850 7.1748 O.3 9 RES9 -0.4168
   264 C16 5.7365 0.4911 7.2628 C.1 9 RES9 -0.0407
   265 C17 2.2149 0.1530 7.7148 C.2 9 RES9 0.4065
   266 H18 1.4198 -0.8921 9.0928 H 9 RES9 0.1582
   267 F19 4.6476 -1.1501 5.2879 F 9 RES9 -0.1654
   268 F20 5.7195 -2.2933 6.7118 F 9 RES9 -0.1654
   269 F21 3.5897 -2.3362 6.7139 F 9 RES9 -0.1654
   270 C22 6.7494 1.3742 7.3868 C.1 9 RES9 -0.0943
   271 O23 1.2648 0.6871 7.2239 O.2 9 RES9 -0.2261
   272 C24 7.9453 2.4894 7.1148 C.3 9 RES9 0.0209
   273 C25 7.5543 3.7684 7.5518 C.3 9 RES9 -0.0382
   274 C26 8.1714 2.9834 8.6017 C.3 9 RES9 -0.0382
   275 H27 8.7616 2.3255 6.4129 H 9 RES9 0.0433
   276 H28 6.4915 3.9948 7.6235 H 9 RES9 0.0277
   277 H29 8.0856 4.6379 7.1674 H 9 RES9 0.0277
   278 H30 9.1701 3.2235 8.9636 H 9 RES9 0.0277
   279 H31 7.5760 2.5805 9.4197 H 9 RES9 0.0277
   280 C1 13.3839 14.0995 1.2804 C.3 10 RES10 0.0000
   281 CL2 15.4347 15.6613 -2.1078 Cl 10 RES10 -0.0835
   282 C3 13.9719 15.2853 -1.2169 C.ar 10 RES10 0.0415
   283 C4 12.7150 15.4683 -1.7659 C.ar 10 RES10 -0.0416
   284 C5 14.1008 14.7921 0.0731 C.ar 10 RES10 -0.0334
   285 C6 11.5972 15.1651 -1.0799 C.ar 10 RES10 -0.0386
   286 H7 12.6390 15.8094 -2.6278 H 10 RES10 0.0633
   287 C8 12.9670 14.5161 0.7921 C.ar 10 RES10 0.0397
   288 H9 14.9419 14.6530 0.4440 H 10 RES10 0.0637
   289 C10 11.7411 14.6661 0.2091 C.ar 10 RES10 0.0448
   290 H11 10.7551 15.2883 -1.4559 H 10 RES10 0.0637
   291 C12 13.0360 14.0090 2.2020 C.3 10 RES10 0.2958
   292 N13 10.6131 14.2601 0.9120 N.am 10 RES10 -0.2507
   293 C14 13.0480 15.1741 3.1700 C.3 10 RES10 0.4460
   294 O15 11.8770 13.2480 2.5450 O.3 10 RES10 -0.4168
   295 C16 14.1618 13.1419 2.4570 C.1 10 RES10 -0.0407
   296 C17 10.6402 13.4800 2.0050 C.2 10 RES10 0.4065
   297 H18 9.8452 14.5251 0.6270 H 10 RES10 0.1582
   298 F19 13.0729 14.7831 4.4319 F 10 RES10 -0.1654
   299 F20 14.1448 15.9263 3.0080 F 10 RES10 -0.1654
   300 F21 12.0151 15.9692 3.0059 F 10 RES10 -0.1654
   301 C22 15.1747 12.2588 2.3330 C.1 10 RES10 -0.0943
   302 O23 9.6902 12.9459 2.4959 O.2 10 RES10 -0.2261
   303 C24 16.3706 11.1436 2.6050 C.3 10 RES10 0.0209
   304 C25 15.9797 9.8646 2.1680 C.3 10 RES10 -0.0382
   305 C26 16.5968 10.6496 1.1181 C.3 10 RES10 -0.0382
   306 H27 17.1869 11.3075 3.3069 H 10 RES10 0.0433
   307 H28 14.9169 9.6382 2.0963 H 10 RES10 0.0277
   308 H29 16.5109 8.9951 2.5524 H 10 RES10 0.0277
   309 H30 17.5954 10.4095 0.7562 H 10 RES10 0.0277
   310 H31 16.0014 11.0525 0.3001 H 10 RES10 0.0277
   311 C1 11.8921 27.7325 8.4394 C.3 11 RES11 0.0000
   312 CL2 9.8413 29.2943 11.8276 Cl 11 RES11 -0.0835
   313 C3 11.3041 28.9183 10.9367 C.ar 11 RES11 0.0415
   314 C4 12.5610 29.1013 11.4857 C.ar 11 RES11 -0.0416
   315 C5 11.1752 28.4251 9.6467 C.ar 11 RES11 -0.0334
   316 C6 13.6789 28.7981 10.7997 C.ar 11 RES11 -0.0386
   317 H7 12.6370 29.4424 12.3476 H 11 RES11 0.0633
   318 C8 12.3091 28.1491 8.9277 C.ar 11 RES11 0.0397
   319 H9 10.3342 28.2860 9.2758 H 11 RES11 0.0637
   320 C10 13.5350 28.2991 9.5107 C.ar 11 RES11 0.0448
   321 H11 14.5209 28.9213 11.1757 H 11 RES11 0.0637
   322 C12 12.2400 27.6420 7.5178 C.3 11 RES11 0.2958
   323 N13 14.6630 27.8931 8.8078 N.am 11 RES11 -0.2507
   324 C14 12.2280 28.8071 6.5498 C.3 11 RES11 0.4460
   325 O15 13.3990 26.8810 7.1748 O.3 11 RES11 -0.4168
   326 C16 11.1142 26.7749 7.2628 C.1 11 RES11 -0.0407
   327 C17 14.6358 27.1130 7.7148 C.2 11 RES11 0.4065
   328 H18 15.4309 28.1581 9.0928 H 11 RES11 0.1582
   329 F19 12.2031 28.4161 5.2879 F 11 RES11 -0.1654
   330 F20 11.1312 29.5593 6.7118 F 11 RES11 -0.1654
   331 F21 13.2610 29.6022 6.7139 F 11 RES11 -0.1654
   332 C22 10.1013 25.8918 7.3868 C.1 11 RES11 -0.0943
   333 O23 15.5859 26.5789 7.2239 O.2 11 RES11 -0.2261
   334 C24 8.9054 24.7766 7.1148 C.3 11 RES11 0.0209
   335 C25 9.2964 23.4976 7.5518 C.3 11 RES11 -0.0382
   336 C26 8.6793 24.2826 8.6017 C.3 11 RES11 -0.0382
   337 H27 8.0891 24.9405 6.4129 H 11 RES11 0.0433
   338 H28 10.3592 23.2712 7.6235 H 11 RES11 0.0277
   339 H29 8.7651 22.6281 7.1674 H 11 RES11 0.0277
   340 H30 7.6806 24.0425 8.9636 H 11 RES11 0.0277
   341 H31 9.2747 24.6855 9.4197 H 11 RES11 0.0277
   342 C1 3.4668 13.1665 1.2804 C.3 12 RES12 0.0000
   343 CL2 1.4160 11.6047 -2.1078 Cl 12 RES12 -0.0835
   344 C3 2.8788 11.9807 -1.2169 C.ar 12 RES12 0.0415
   345 C4 4.1357 11.7977 -1.7659 C.ar 12 RES12 -0.0416
   346 C5 2.7499 12.4739 0.0731 C.ar 12 RES12 -0.0334
   347 C6 5.2535 12.1009 -1.0799 C.ar 12 RES12 -0.0386
   348 H7 4.2117 11.4566 -2.6278 H 12 RES12 0.0633
   349 C8 3.8837 12.7499 0.7921 C.ar 12 RES12 0.0397
   350 H9 1.9088 12.6130 0.4440 H 12 RES12 0.0637
   351 C10 5.1096 12.5999 0.2091 C.ar 12 RES12 0.0448
   352 H11 6.0956 11.9777 -1.4559 H 12 RES12 0.0637
   353 C12 3.8147 13.2570 2.2020 C.3 12 RES12 0.2958
   354 N13 6.2376 13.0059 0.9120 N.am 12 RES12 -0.2507
   355 C14 3.8027 12.0919 3.1700 C.3 12 RES12 0.4460
   356 O15 4.9737 14.0180 2.5450 O.3 12 RES12 -0.4168
   357 C16 2.6889 14.1241 2.4570 C.1 12 RES12 -0.0407
   358 C17 6.2105 13.7860 2.0050 C.2 12 RES12 0.4065
   359 H18 7.0055 12.7409 0.6270 H 12 RES12 0.1582
   360 F19 3.7778 12.4829 4.4319 F 12 RES12 -0.1654
   361 F20 2.7059 11.3397 3.0080 F 12 RES12 -0.1654
   362 F21 4.8356 11.2968 3.0059 F 12 RES12 -0.1654
   363 C22 1.6760 15.0072 2.3330 C.1 12 RES12 -0.0943
   364 O23 7.1605 14.3201 2.4959 O.2 12 RES12 -0.2261
   365 C24 0.4801 16.1224 2.6050 C.3 12 RES12 0.0209
   366 C25 0.8710 17.4014 2.1680 C.3 12 RES12 -0.0382
   367 C26 0.2539 16.6164 1.1181 C.3 12 RES12 -0.0382
   368 H27 -0.3362 15.9585 3.3069 H 12 RES12 0.0433
   369 H28 1.9338 17.6278 2.0963 H 12 RES12 0.0277
   370 H29 0.3398 18.2709 2.5524 H 12 RES12 0.0277
   371 H30 -0.7447 16.8565 0.7562 H 12 RES12 0.0277
   372 H31 0.8493 16.2135 0.3001 H 12 RES12 0.0277
@<TRIPOS>BOND
  1 1 2 1 
  2 20 14 1 
  3 27 24 1 
  4 14 19 1 
  5 14 21 1 
  6 14 12 1 
  7 28 25 1 
  8 31 26 1 
  9 24 22 1 
  10 24 25 1 
  11 24 26 1 
  12 15 12 1 
  13 15 17 1 
  14 23 17 2 
  15 22 16 3 
  16 16 12 1 
  17 12 8 1 
  18 25 26 1 
  19 25 29 1 
  20 17 13 am 
  21 26 30 1 
  22 13 18 1 
  23 13 10 1 
  24 8 10 ar 
  25 8 5 ar 
  26 9 5 1 
  27 10 6 ar 
  28 5 3 ar 
  29 6 11 1 
  30 6 4 ar 
  31 3 4 ar 
  32 3 2 1 
  33 4 7 1 
  34 32 33 1 
  35 38 35 1 
  36 33 34 1 
  37 35 34 ar 
  38 35 37 ar 
  39 42 37 1 
  40 34 36 ar 
  41 37 41 ar 
  42 36 40 1 
  43 36 39 ar 
  44 41 39 ar 
  45 41 44 1 
  46 49 44 1 
  47 39 43 1 
  48 44 48 am 
  49 61 57 1 
  50 60 56 1 
  51 48 54 2 
  52 48 46 1 
  53 57 56 1 
  54 57 55 1 
  55 57 62 1 
  56 56 55 1 
  57 56 59 1 
  58 43 47 1 
  59 43 46 1 
  60 43 45 1 
  61 47 53 3 
  62 53 55 1 
  63 55 58 1 
  64 52 45 1 
  65 50 45 1 
  66 45 51 1 
  67 63 64 1 
  68 82 76 1 
  69 89 86 1 
  70 76 81 1 
  71 76 83 1 
  72 76 74 1 
  73 90 87 1 
  74 93 88 1 
  75 86 84 1 
  76 86 87 1 
  77 86 88 1 
  78 77 74 1 
  79 77 79 1 
  80 85 79 2 
  81 84 78 3 
  82 78 74 1 
  83 74 70 1 
  84 87 88 1 
  85 87 91 1 
  86 79 75 am 
  87 88 92 1 
  88 75 80 1 
  89 75 72 1 
  90 70 72 ar 
  91 70 67 ar 
  92 71 67 1 
  93 72 68 ar 
  94 67 65 ar 
  95 68 73 1 
  96 68 66 ar 
  97 65 66 ar 
  98 65 64 1 
  99 66 69 1 
  100 94 95 1 
  101 100 97 1 
  102 95 96 1 
  103 97 96 ar 
  104 97 99 ar 
  105 104 99 1 
  106 96 98 ar 
  107 99 103 ar 
  108 98 102 1 
  109 98 101 ar 
  110 103 101 ar 
  111 103 106 1 
  112 111 106 1 
  113 101 105 1 
  114 106 110 am 
  115 123 119 1 
  116 122 118 1 
  117 110 116 2 
  118 110 108 1 
  119 119 118 1 
  120 119 117 1 
  121 119 124 1 
  122 118 117 1 
  123 118 121 1 
  124 105 109 1 
  125 105 108 1 
  126 105 107 1 
  127 109 115 3 
  128 115 117 1 
  129 117 120 1 
  130 114 107 1 
  131 112 107 1 
  132 107 113 1 
  133 125 126 1 
  134 145 138 1 
  135 154 150 1 
  136 155 150 1 
  137 150 148 1 
  138 150 149 1 
  139 138 144 1 
  140 138 143 1 
  141 138 136 1 
  142 151 148 1 
  143 148 146 1 
  144 148 149 1 
  145 146 140 3 
  146 147 141 2 
  147 139 136 1 
  148 139 141 1 
  149 140 136 1 
  150 149 152 1 
  151 149 153 1 
  152 136 132 1 
  153 141 137 am 
  154 137 142 1 
  155 137 134 1 
  156 132 134 ar 
  157 132 129 ar 
  158 133 129 1 
  159 134 130 ar 
  160 129 127 ar 
  161 130 135 1 
  162 130 128 ar 
  163 127 128 ar 
  164 127 126 1 
  165 128 131 1 
  166 156 157 1 
  167 162 159 1 
  168 157 158 1 
  169 159 158 ar 
  170 159 161 ar 
  171 166 161 1 
  172 158 160 ar 
  173 161 165 ar 
  174 160 164 1 
  175 160 163 ar 
  176 165 163 ar 
  177 165 168 1 
  178 173 168 1 
  179 163 167 1 
  180 168 172 am 
  181 184 180 1 
  182 183 180 1 
  183 172 170 1 
  184 172 178 2 
  185 167 171 1 
  186 167 170 1 
  187 167 169 1 
  188 180 179 1 
  189 180 181 1 
  190 171 177 3 
  191 177 179 1 
  192 179 182 1 
  193 179 181 1 
  194 174 169 1 
  195 175 169 1 
  196 169 176 1 
  197 181 186 1 
  198 181 185 1 
  199 187 188 1 
  200 207 200 1 
  201 216 212 1 
  202 217 212 1 
  203 212 210 1 
  204 212 211 1 
  205 200 206 1 
  206 200 205 1 
  207 200 198 1 
  208 213 210 1 
  209 210 208 1 
  210 210 211 1 
  211 208 202 3 
  212 209 203 2 
  213 201 198 1 
  214 201 203 1 
  215 202 198 1 
  216 211 214 1 
  217 211 215 1 
  218 198 194 1 
  219 203 199 am 
  220 199 204 1 
  221 199 196 1 
  222 194 196 ar 
  223 194 191 ar 
  224 195 191 1 
  225 196 192 ar 
  226 191 189 ar 
  227 192 197 1 
  228 192 190 ar 
  229 189 190 ar 
  230 189 188 1 
  231 190 193 1 
  232 218 219 1 
  233 224 221 1 
  234 219 220 1 
  235 221 220 ar 
  236 221 223 ar 
  237 228 223 1 
  238 220 222 ar 
  239 223 227 ar 
  240 222 226 1 
  241 222 225 ar 
  242 227 225 ar 
  243 227 230 1 
  244 235 230 1 
  245 225 229 1 
  246 230 234 am 
  247 246 242 1 
  248 245 242 1 
  249 234 232 1 
  250 234 240 2 
  251 229 233 1 
  252 229 232 1 
  253 229 231 1 
  254 242 241 1 
  255 242 243 1 
  256 233 239 3 
  257 239 241 1 
  258 241 244 1 
  259 241 243 1 
  260 236 231 1 
  261 237 231 1 
  262 231 238 1 
  263 243 248 1 
  264 243 247 1 
  265 249 250 1 
  266 267 262 1 
  267 275 272 1 
  268 262 268 1 
  269 262 269 1 
  270 262 260 1 
  271 272 270 1 
  272 272 273 1 
  273 272 274 1 
  274 277 273 1 
  275 263 260 1 
  276 263 265 1 
  277 271 265 2 
  278 264 270 3 
  279 264 260 1 
  280 260 256 1 
  281 273 276 1 
  282 273 274 1 
  283 265 261 am 
  284 274 278 1 
  285 274 279 1 
  286 261 266 1 
  287 261 258 1 
  288 256 258 ar 
  289 256 253 ar 
  290 257 253 1 
  291 258 254 ar 
  292 253 251 ar 
  293 254 259 1 
  294 254 252 ar 
  295 251 252 ar 
  296 251 250 1 
  297 252 255 1 
  298 280 281 1 
  299 286 283 1 
  300 281 282 1 
  301 283 282 ar 
  302 283 285 ar 
  303 290 285 1 
  304 282 284 ar 
  305 285 289 ar 
  306 284 288 1 
  307 284 287 ar 
  308 289 287 ar 
  309 289 292 1 
  310 310 305 1 
  311 297 292 1 
  312 309 305 1 
  313 287 291 1 
  314 292 296 am 
  315 305 304 1 
  316 305 303 1 
  317 296 302 2 
  318 296 294 1 
  319 307 304 1 
  320 304 308 1 
  321 304 303 1 
  322 291 295 1 
  323 291 294 1 
  324 291 293 1 
  325 301 295 3 
  326 301 303 1 
  327 303 306 1 
  328 300 293 1 
  329 299 293 1 
  330 293 298 1 
  331 311 312 1 
  332 329 324 1 
  333 337 334 1 
  334 324 330 1 
  335 324 331 1 
  336 324 322 1 
  337 334 332 1 
  338 334 335 1 
  339 334 336 1 
  340 339 335 1 
  341 325 322 1 
  342 325 327 1 
  343 333 327 2 
  344 326 332 3 
  345 326 322 1 
  346 322 318 1 
  347 335 338 1 
  348 335 336 1 
  349 327 323 am 
  350 336 340 1 
  351 336 341 1 
  352 323 328 1 
  353 323 320 1 
  354 318 320 ar 
  355 318 315 ar 
  356 319 315 1 
  357 320 316 ar 
  358 315 313 ar 
  359 316 321 1 
  360 316 314 ar 
  361 313 314 ar 
  362 313 312 1 
  363 314 317 1 
  364 342 343 1 
  365 348 345 1 
  366 343 344 1 
  367 345 344 ar 
  368 345 347 ar 
  369 352 347 1 
  370 344 346 ar 
  371 347 351 ar 
  372 346 350 1 
  373 346 349 ar 
  374 351 349 ar 
  375 351 354 1 
  376 372 367 1 
  377 359 354 1 
  378 371 367 1 
  379 349 353 1 
  380 354 358 am 
  381 367 366 1 
  382 367 365 1 
  383 358 364 2 
  384 358 356 1 
  385 369 366 1 
  386 366 370 1 
  387 366 365 1 
  388 353 357 1 
  389 353 356 1 
  390 353 355 1 
  391 363 357 3 
  392 363 365 1 
  393 365 368 1 
  394 362 355 1 
  395 361 355 1 
  396 355 360 1 
  397 16 1 1 
  398 47 32 1 
  399 78 63 1 
  400 109 94 1 
  401 140 125 1 
  402 171 156 1 
  403 202 187 1 
  404 233 218 1 
  405 264 249 1 
  406 295 280 1 
  407 326 311 1 
  408 357 342 1 
@<TRIPOS>SUBSTRUCTURE
    1 RES1        1 GROUP             0 ****  ****    0
    2 RES2        32 GROUP             0 ****  ****    0
    3 RES3        63 GROUP             0 ****  ****    0
    4 RES4        94 GROUP             0 ****  ****    0
    5 RES5        125 GROUP             0 ****  ****    0
    6 RES6        156 GROUP             0 ****  ****    0
    7 RES7        187 GROUP             0 ****  ****    0
    8 RES8        218 GROUP             0 ****  ****    0
    9 RES9        249 GROUP             0 ****  ****    0
    10 RES10        280 GROUP             0 ****  ****    0
    11 RES11        311 GROUP             0 ****  ****    0
    12 RES12        342 GROUP             0 ****  ****    0
@<TRIPOS>CRYSIN
   16.8507   27.2660    9.7198   90.0000   90.0000   90.0000    18     1 
