@<TRIPOS>MOLECULE
RUKGUZ
   532   548    24     0     0
SMALL
NO_CHARGES
****
Generated from the CSD

@<TRIPOS>ATOM
     1 S1       8.3270  13.5400   0.5893   S.3       1 RES1   0.0000
     2 N1       8.9307  13.6465   3.8563   N.am      1 RES1   0.0000
     3 O1       7.2207  14.0075   5.3099   O.2       1 RES1   0.0000
     4 C1       8.2457  13.3743   5.0569   C.2       1 RES1   0.0000
     5 C2       9.2915  15.0476   0.8016   C.3       1 RES1   0.0000
     6 H1       8.7879  15.8012   0.4252   H         1 RES1   0.0000
     7 O2       9.4229  15.2382   2.2294   O.3       1 RES1   0.0000
     8 N2       8.7357  12.4301   5.8808   N.2       1 RES1   0.0000
     9 C3       9.8149  11.7266   5.5483   C.2       1 RES1   0.0000
    10 N3      10.2070  10.7653   6.3753   N.3       1 RES1   0.0000
    11 H2       9.7670  10.6149   7.0991   H         1 RES1   0.0000
    12 H3      10.9014  10.2939   6.1881   H         1 RES1   0.0000
    13 C4       8.3718  14.6623   2.9623   C.3       1 RES1   0.0000
    14 H4       7.9402  15.3571   3.5025   H         1 RES1   0.0000
    15 C5       7.3458  14.0748   2.0004   C.3       1 RES1   0.0000
    16 H5       6.6952  14.7453   1.7356   H         1 RES1   0.0000
    17 H6       6.8808  13.3255   2.4047   H         1 RES1   0.0000
    18 C6      10.5135  11.9573   4.3250   C.2       1 RES1   0.0000
    19 H7      11.2653  11.4602   4.0985   H         1 RES1   0.0000
    20 O3      11.4311  13.9044   0.5475   O.3       1 RES1   0.0000
    21 H8      11.2226  13.2697   0.0732   H         1 RES1   0.0000
    22 C7      10.0475  12.9144   3.5234   C.2       1 RES1   0.0000
    23 H9      10.4843  13.0906   2.7219   H         1 RES1   0.0000
    24 C8      10.6585  15.0305   0.1952   C.3       1 RES1   0.0000
    25 H10     10.5709  15.0577  -0.7737   H         1 RES1   0.0000
    26 H11     11.1308  15.8313   0.4670   H         1 RES1   0.0000
    27 S1       7.3135   0.7870  18.0148   S.3       2 RES2   0.0000
    28 N1       6.7098   0.6805  21.2818   N.am      2 RES2   0.0000
    29 O1       8.4198   0.3195  22.7354   O.2       2 RES2   0.0000
    30 C1       7.3948   0.9527  22.4824   C.2       2 RES2   0.0000
    31 C2       6.3490  -0.7206  18.2271   C.3       2 RES2   0.0000
    32 H1       6.8526  -1.4742  17.8507   H         2 RES2   0.0000
    33 O2       6.2176  -0.9112  19.6549   O.3       2 RES2   0.0000
    34 N2       6.9048   1.8969  23.3063   N.2       2 RES2   0.0000
    35 C3       5.8256   2.6004  22.9738   C.2       2 RES2   0.0000
    36 N3       5.4335   3.5617  23.8008   N.3       2 RES2   0.0000
    37 H2       5.8735   3.7121  24.5246   H         2 RES2   0.0000
    38 H3       4.7391   4.0331  23.6136   H         2 RES2   0.0000
    39 C4       7.2687  -0.3353  20.3878   C.3       2 RES2   0.0000
    40 H4       7.7003  -1.0301  20.9280   H         2 RES2   0.0000
    41 C5       8.2947   0.2522  19.4259   C.3       2 RES2   0.0000
    42 H5       8.9453  -0.4183  19.1611   H         2 RES2   0.0000
    43 H6       8.7597   1.0015  19.8302   H         2 RES2   0.0000
    44 C6       5.1270   2.3697  21.7505   C.2       2 RES2   0.0000
    45 H7       4.3752   2.8668  21.5240   H         2 RES2   0.0000
    46 O3       4.2094   0.4226  17.9730   O.3       2 RES2   0.0000
    47 H8       4.4179   1.0573  17.4987   H         2 RES2   0.0000
    48 C7       5.5930   1.4126  20.9489   C.2       2 RES2   0.0000
    49 H9       5.1562   1.2364  20.1474   H         2 RES2   0.0000
    50 C8       4.9820  -0.7035  17.6207   C.3       2 RES2   0.0000
    51 H10      5.0696  -0.7307  16.6518   H         2 RES2   0.0000
    52 H11      4.5097  -1.5043  17.8925   H         2 RES2   0.0000
    53 S1       3.1135   7.9505  34.2617   S.3       3 RES3   0.0000
    54 N1       3.7172   7.8440  30.9947   N.am      3 RES3   0.0000
    55 O1       2.0072   7.4830  29.5411   O.2       3 RES3   0.0000
    56 C1       3.0322   8.1162  29.7941   C.2       3 RES3   0.0000
    57 C2       4.0780   6.4429  34.0494   C.3       3 RES3   0.0000
    58 H1       3.5744   5.6893  34.4258   H         3 RES3   0.0000
    59 O2       4.2094   6.2523  32.6216   O.3       3 RES3   0.0000
    60 N2       3.5222   9.0604  28.9702   N.2       3 RES3   0.0000
    61 C3       4.6014   9.7639  29.3027   C.2       3 RES3   0.0000
    62 N3       4.9935  10.7252  28.4757   N.3       3 RES3   0.0000
    63 H2       4.5535  10.8756  27.7519   H         3 RES3   0.0000
    64 H3       5.6879  11.1966  28.6629   H         3 RES3   0.0000
    65 C4       3.1583   6.8282  31.8887   C.3       3 RES3   0.0000
    66 H4       2.7267   6.1334  31.3485   H         3 RES3   0.0000
    67 C5       2.1323   7.4157  32.8506   C.3       3 RES3   0.0000
    68 H5       1.4817   6.7452  33.1154   H         3 RES3   0.0000
    69 H6       1.6673   8.1650  32.4463   H         3 RES3   0.0000
    70 C6       5.3000   9.5332  30.5260   C.2       3 RES3   0.0000
    71 H7       6.0518  10.0303  30.7525   H         3 RES3   0.0000
    72 O3       6.2176   7.5861  34.3035   O.3       3 RES3   0.0000
    73 H8       6.0091   8.2208  34.7778   H         3 RES3   0.0000
    74 C7       4.8340   8.5761  31.3276   C.2       3 RES3   0.0000
    75 H9       5.2708   8.3999  32.1291   H         3 RES3   0.0000
    76 C8       5.4450   6.4600  34.6558   C.3       3 RES3   0.0000
    77 H10      5.3574   6.4328  35.6247   H         3 RES3   0.0000
    78 H11      5.9173   5.6592  34.3840   H         3 RES3   0.0000
    79 S1       2.1000   6.3765  16.8362   S.3       4 RES4   0.0000
    80 N1       1.4963   6.4830  13.5692   N.am      4 RES4   0.0000
    81 O1       3.2063   6.8440  12.1156   O.2       4 RES4   0.0000
    82 C1       2.1813   6.2108  12.3686   C.2       4 RES4   0.0000
    83 C2       1.1355   7.8841  16.6239   C.3       4 RES4   0.0000
    84 H1       1.6391   8.6377  17.0003   H         4 RES4   0.0000
    85 O2       1.0041   8.0747  15.1961   O.3       4 RES4   0.0000
    86 N2       1.6913   5.2666  11.5447   N.2       4 RES4   0.0000
    87 C3       0.6121   4.5631  11.8772   C.2       4 RES4   0.0000
    88 N3       0.2200   3.6018  11.0502   N.3       4 RES4   0.0000
    89 H2       0.6600   3.4514  10.3264   H         4 RES4   0.0000
    90 H3      -0.4744   3.1304  11.2374   H         4 RES4   0.0000
    91 C4       2.0552   7.4988  14.4632   C.3       4 RES4   0.0000
    92 H4       2.4868   8.1936  13.9230   H         4 RES4   0.0000
    93 C5       3.0812   6.9113  15.4251   C.3       4 RES4   0.0000
    94 H5       3.7318   7.5818  15.6899   H         4 RES4   0.0000
    95 H6       3.5462   6.1620  15.0208   H         4 RES4   0.0000
    96 C6      -0.0865   4.7938  13.1005   C.2       4 RES4   0.0000
    97 H7      -0.8383   4.2967  13.3270   H         4 RES4   0.0000
    98 O3      -1.0041   6.7409  16.8780   O.3       4 RES4   0.0000
    99 H8      -0.7956   6.1062  17.3523   H         4 RES4   0.0000
   100 C7       0.3795   5.7509  13.9021   C.2       4 RES4   0.0000
   101 H9      -0.0573   5.9271  14.7036   H         4 RES4   0.0000
   102 C8      -0.2315   7.8670  17.2303   C.3       4 RES4   0.0000
   103 H10     -0.1439   7.8942  18.1992   H         4 RES4   0.0000
   104 H11     -0.7038   8.6678  16.9585   H         4 RES4   0.0000
   105 S2       9.8858   2.2912   5.9818   S.3       5 RES5   0.0000
   106 N4       8.6388   4.0660   3.5036   N.am      5 RES5   0.0000
   107 O4       9.8327   4.0760   1.5690   O.2       5 RES5   0.0000
   108 C9       8.7191   3.9657   2.1015   C.2       5 RES5   0.0000
   109 C10      9.9453   3.9757   6.6112   C.3       5 RES5   0.0000
   110 H12     10.8712   4.1735   6.8656   H         5 RES5   0.0000
   111 O5       9.5908   4.8311   5.5085   O.3       5 RES5   0.0000
   112 N5       7.5867   3.7222   1.3958   N.2       5 RES5   0.0000
   113 N6       5.3303   3.3325   1.3344   N.3       5 RES5   0.0000
   114 H13      5.3897   3.2221   0.4834   H         5 RES5   0.0000
   115 H14      4.5681   3.2580   1.7255   H         5 RES5   0.0000
   116 C11      6.4220   3.6161   2.0492   C.2       5 RES5   0.0000
   117 C12      9.9046   4.2623   4.2449   C.3       5 RES5   0.0000
   118 H15     10.4843   4.8755   3.7465   H         5 RES5   0.0000
   119 C13      6.3021   3.7737   3.4502   C.2       5 RES5   0.0000
   120 H16      5.4773   3.7322   3.8789   H         5 RES5   0.0000
   121 C14     10.6376   2.9471   4.4818   C.3       5 RES5   0.0000
   122 H17     11.5875   3.0975   4.6073   H         5 RES5   0.0000
   123 H18     10.5104   2.3410   3.7360   H         5 RES5   0.0000
   124 O6       7.7181   3.8826   7.5923   O.3       5 RES5   0.0000
   125 H19      7.2603   4.5388   7.4128   H         5 RES5   0.0000
   126 C15      7.4376   3.9858   4.1333   C.2       5 RES5   0.0000
   127 H20      7.4011   4.0818   5.0569   H         5 RES5   0.0000
   128 C16      9.0694   4.2838   7.7753   C.3       5 RES5   0.0000
   129 H21      9.4250   3.8382   8.5594   H         5 RES5   0.0000
   130 H22      9.0934   5.2380   7.9391   H         5 RES5   0.0000
   131 S2       5.7547  12.0358  23.4073   S.3       6 RES6   0.0000
   132 N4       7.0017  10.2610  20.9291   N.am      6 RES6   0.0000
   133 O4       5.8078  10.2510  18.9945   O.2       6 RES6   0.0000
   134 C9       6.9214  10.3613  19.5270   C.2       6 RES6   0.0000
   135 C10      5.6952  10.3513  24.0367   C.3       6 RES6   0.0000
   136 H12      4.7693  10.1535  24.2911   H         6 RES6   0.0000
   137 O5       6.0497   9.4959  22.9340   O.3       6 RES6   0.0000
   138 N5       8.0538  10.6048  18.8213   N.2       6 RES6   0.0000
   139 N6      10.3102  10.9945  18.7599   N.3       6 RES6   0.0000
   140 H13     10.2508  11.1049  17.9089   H         6 RES6   0.0000
   141 H14     11.0724  11.0690  19.1510   H         6 RES6   0.0000
   142 C11      9.2185  10.7109  19.4747   C.2       6 RES6   0.0000
   143 C12      5.7359  10.0647  21.6704   C.3       6 RES6   0.0000
   144 H15      5.1562   9.4515  21.1720   H         6 RES6   0.0000
   145 C13      9.3384  10.5533  20.8757   C.2       6 RES6   0.0000
   146 H16     10.1632  10.5948  21.3044   H         6 RES6   0.0000
   147 C14      5.0029  11.3799  21.9073   C.3       6 RES6   0.0000
   148 H17      4.0530  11.2295  22.0328   H         6 RES6   0.0000
   149 H18      5.1301  11.9860  21.1615   H         6 RES6   0.0000
   150 O6       7.9224  10.4444  25.0178   O.3       6 RES6   0.0000
   151 H19      8.3802   9.7882  24.8383   H         6 RES6   0.0000
   152 C15      8.2029  10.3412  21.5588   C.2       6 RES6   0.0000
   153 H20      8.2394  10.2452  22.4824   H         6 RES6   0.0000
   154 C16      6.5711  10.0432  25.2008   C.3       6 RES6   0.0000
   155 H21      6.2155  10.4888  25.9849   H         6 RES6   0.0000
   156 H22      6.5471   9.0890  25.3646   H         6 RES6   0.0000
   157 S2       4.6723   4.8723  28.8692   S.3       7 RES7   0.0000
   158 N4       3.4253   3.0975  31.3474   N.am      7 RES7   0.0000
   159 O4       4.6192   3.0875  33.2820   O.2       7 RES7   0.0000
   160 C9       3.5056   3.1978  32.7495   C.2       7 RES7   0.0000
   161 C10      4.7318   3.1878  28.2398   C.3       7 RES7   0.0000
   162 H12      5.6577   2.9900  27.9854   H         7 RES7   0.0000
   163 O5       4.3773   2.3324  29.3425   O.3       7 RES7   0.0000
   164 N5       2.3732   3.4413  33.4552   N.2       7 RES7   0.0000
   165 N6       0.1168   3.8310  33.5166   N.3       7 RES7   0.0000
   166 H13      0.1762   3.9414  34.3676   H         7 RES7   0.0000
   167 H14     -0.6454   3.9055  33.1255   H         7 RES7   0.0000
   168 C11      1.2085   3.5474  32.8018   C.2       7 RES7   0.0000
   169 C12      4.6911   2.9012  30.6061   C.3       7 RES7   0.0000
   170 H15      5.2708   2.2880  31.1045   H         7 RES7   0.0000
   171 C13      1.0886   3.3898  31.4008   C.2       7 RES7   0.0000
   172 H16      0.2638   3.4313  30.9721   H         7 RES7   0.0000
   173 C14      5.4241   4.2164  30.3692   C.3       7 RES7   0.0000
   174 H17      6.3740   4.0660  30.2437   H         7 RES7   0.0000
   175 H18      5.2969   4.8225  31.1150   H         7 RES7   0.0000
   176 O6       2.5046   3.2809  27.2587   O.3       7 RES7   0.0000
   177 H19      2.0468   2.6247  27.4382   H         7 RES7   0.0000
   178 C15      2.2241   3.1777  30.7177   C.2       7 RES7   0.0000
   179 H20      2.1876   3.0817  29.7941   H         7 RES7   0.0000
   180 C16      3.8559   2.8797  27.0757   C.3       7 RES7   0.0000
   181 H21      4.2115   3.3253  26.2916   H         7 RES7   0.0000
   182 H22      3.8799   1.9255  26.9119   H         7 RES7   0.0000
   183 S2       0.5412   9.4547  11.4437   S.3       8 RES8   0.0000
   184 N4       1.7882  11.2295  13.9219   N.am      8 RES8   0.0000
   185 O4       0.5943  11.2395  15.8565   O.2       8 RES8   0.0000
   186 C9       1.7079  11.1292  15.3240   C.2       8 RES8   0.0000
   187 C10      0.4817  11.1392  10.8143   C.3       8 RES8   0.0000
   188 H12     -0.4442  11.3370  10.5599   H         8 RES8   0.0000
   189 O5       0.8362  11.9946  11.9170   O.3       8 RES8   0.0000
   190 N5       2.8403  10.8857  16.0297   N.2       8 RES8   0.0000
   191 N6       5.0967  10.4960  16.0911   N.3       8 RES8   0.0000
   192 H13      5.0373  10.3856  16.9421   H         8 RES8   0.0000
   193 H14      5.8589  10.4215  15.7000   H         8 RES8   0.0000
   194 C11      4.0050  10.7796  15.3763   C.2       8 RES8   0.0000
   195 C12      0.5224  11.4258  13.1806   C.3       8 RES8   0.0000
   196 H15     -0.0573  12.0390  13.6790   H         8 RES8   0.0000
   197 C13      4.1249  10.9372  13.9753   C.2       8 RES8   0.0000
   198 H16      4.9497  10.8957  13.5466   H         8 RES8   0.0000
   199 C14     -0.2106  10.1106  12.9437   C.3       8 RES8   0.0000
   200 H17     -1.1605  10.2610  12.8182   H         8 RES8   0.0000
   201 H18     -0.0834   9.5045  13.6895   H         8 RES8   0.0000
   202 O6       2.7089  11.0461   9.8332   O.3       8 RES8   0.0000
   203 H19      3.1667  11.7023  10.0127   H         8 RES8   0.0000
   204 C15      2.9894  11.1493  13.2922   C.2       8 RES8   0.0000
   205 H20      3.0259  11.2453  12.3686   H         8 RES8   0.0000
   206 C16      1.3576  11.4473   9.6502   C.3       8 RES8   0.0000
   207 H21      1.0020  11.0017   8.8661   H         8 RES8   0.0000
   208 H22      1.3336  12.4015   9.4864   H         8 RES8   0.0000
   209 S3       8.0622  15.4126  30.3458   S.3       9 RES9   0.0000
   210 N7       6.3615  13.0275  32.6990   N.am      9 RES9   0.0000
   211 O7       6.9788  10.8699  33.0806   O.2       9 RES9   0.0000
   212 C17      6.2426  11.7983  33.3559   C.2       9 RES9   0.0000
   213 C18      7.4522  13.9588  29.4630   C.3       9 RES9   0.0000
   214 H23      8.2113  13.4058  29.1807   H         9 RES9   0.0000
   215 O8       6.6837  13.2496  30.4211   O.3       9 RES9   0.0000
   216 N8       5.2594  11.6951  34.3004   N.2       9 RES9   0.0000
   217 C19      7.3927  13.1808  31.6691   C.3       9 RES9   0.0000
   218 H24      7.9673  12.3857  31.6691   H         9 RES9   0.0000
   219 C20      4.4575  12.7195  34.5722   C.2       9 RES9   0.0000
   220 N9       3.4837  12.5361  35.4686   N.3       9 RES9   0.0000
   221 H25      3.3898  11.7725  35.8516   H         9 RES9   0.0000
   222 H26      2.9508  13.1823  35.6627   H         9 RES9   0.0000
   223 C21      4.6171  13.9703  33.9484   C.2       9 RES9   0.0000
   224 H27      4.0832  14.6966  34.1749   H         9 RES9   0.0000
   225 C22      8.2655  14.4359  31.8399   C.3       9 RES9   0.0000
   226 H28      9.1966  14.1866  31.9549   H         9 RES9   0.0000
   227 H29      7.9819  14.9431  32.6171   H         9 RES9   0.0000
   228 O9       6.3167  13.1192  27.5769   O.3       9 RES9   0.0000
   229 H30      5.7265  13.2725  27.0270   H         9 RES9   0.0000
   230 C23      5.5597  14.0691  33.0248   C.2       9 RES9   0.0000
   231 H31      5.6754  14.8800  32.5857   H         9 RES9   0.0000
   232 C24      6.6128  14.2897  28.2816   C.3       9 RES9   0.0000
   233 H32      5.7901  14.7153  28.5708   H         9 RES9   0.0000
   234 H33      7.0872  14.9087  27.7031   H         9 RES9   0.0000
   235 S3       7.5783  -1.0856  12.9203   S.3      10 RES10   0.0000
   236 N7       9.2790   1.2995  15.2735   N.am     10 RES10   0.0000
   237 O7       8.6617   3.4571  15.6551   O.2      10 RES10   0.0000
   238 C17      9.3979   2.5287  15.9304   C.2      10 RES10   0.0000
   239 C18      8.1883   0.3682  12.0375   C.3      10 RES10   0.0000
   240 H23      7.4292   0.9212  11.7552   H        10 RES10   0.0000
   241 O8       8.9568   1.0774  12.9956   O.3      10 RES10   0.0000
   242 N8      10.3811   2.6319  16.8749   N.2      10 RES10   0.0000
   243 C19      8.2478   1.1462  14.2436   C.3      10 RES10   0.0000
   244 H24      7.6732   1.9413  14.2436   H        10 RES10   0.0000
   245 C20     11.1830   1.6075  17.1467   C.2      10 RES10   0.0000
   246 N9      12.1568   1.7909  18.0431   N.3      10 RES10   0.0000
   247 H25     12.2507   2.5545  18.4261   H        10 RES10   0.0000
   248 H26     12.6897   1.1447  18.2372   H        10 RES10   0.0000
   249 C21     11.0234   0.3567  16.5229   C.2      10 RES10   0.0000
   250 H27     11.5573  -0.3696  16.7494   H        10 RES10   0.0000
   251 C22      7.3750  -0.1089  14.4144   C.3      10 RES10   0.0000
   252 H28      6.4439   0.1404  14.5294   H        10 RES10   0.0000
   253 H29      7.6586  -0.6161  15.1916   H        10 RES10   0.0000
   254 O9       9.3238   1.2078  10.1514   O.3      10 RES10   0.0000
   255 H30      9.9140   1.0545   9.6015   H        10 RES10   0.0000
   256 C23     10.0808   0.2579  15.5993   C.2      10 RES10   0.0000
   257 H31      9.9651  -0.5530  15.1602   H        10 RES10   0.0000
   258 C24      9.0277   0.0373  10.8561   C.3      10 RES10   0.0000
   259 H32      9.8504  -0.3883  11.1453   H        10 RES10   0.0000
   260 H33      8.5533  -0.5817  10.2776   H        10 RES10   0.0000
   261 S3       2.8487   6.0779   4.5052   S.3      11 RES11   0.0000
   262 N7       1.1480   8.4630   2.1520   N.am     11 RES11   0.0000
   263 O7       1.7653  10.6206   1.7704   O.2      11 RES11   0.0000
   264 C17      1.0291   9.6922   1.4951   C.2      11 RES11   0.0000
   265 C18      2.2387   7.5317   5.3880   C.3      11 RES11   0.0000
   266 H23      2.9978   8.0847   5.6703   H        11 RES11   0.0000
   267 O8       1.4702   8.2409   4.4299   O.3      11 RES11   0.0000
   268 N8       0.0459   9.7954   0.5506   N.2      11 RES11   0.0000
   269 C19      2.1792   8.3097   3.1819   C.3      11 RES11   0.0000
   270 H24      2.7538   9.1048   3.1819   H        11 RES11   0.0000
   271 C20     -0.7560   8.7710   0.2788   C.2      11 RES11   0.0000
   272 N9      -1.7298   8.9544  -0.6176   N.3      11 RES11   0.0000
   273 H25     -1.8237   9.7180  -1.0006   H        11 RES11   0.0000
   274 H26     -2.2627   8.3082  -0.8117   H        11 RES11   0.0000
   275 C21     -0.5964   7.5202   0.9026   C.2      11 RES11   0.0000
   276 H27     -1.1303   6.7939   0.6761   H        11 RES11   0.0000
   277 C22      3.0520   7.0546   3.0111   C.3      11 RES11   0.0000
   278 H28      3.9831   7.3039   2.8961   H        11 RES11   0.0000
   279 H29      2.7684   6.5474   2.2339   H        11 RES11   0.0000
   280 O9       1.1032   8.3713   7.2741   O.3      11 RES11   0.0000
   281 H30      0.5130   8.2180   7.8240   H        11 RES11   0.0000
   282 C23      0.3462   7.4214   1.8262   C.2      11 RES11   0.0000
   283 H31      0.4619   6.6105   2.2653   H        11 RES11   0.0000
   284 C24      1.3993   7.2008   6.5694   C.3      11 RES11   0.0000
   285 H32      0.5766   6.7752   6.2802   H        11 RES11   0.0000
   286 H33      1.8737   6.5818   7.1479   H        11 RES11   0.0000
   287 S3       2.3648   8.2491  21.9307   S.3      12 RES12   0.0000
   288 N7       4.0655   5.8640  19.5775   N.am     12 RES12   0.0000
   289 O7       3.4482   3.7064  19.1959   O.2      12 RES12   0.0000
   290 C17      4.1844   4.6348  18.9206   C.2      12 RES12   0.0000
   291 C18      2.9748   6.7953  22.8135   C.3      12 RES12   0.0000
   292 H23      2.2157   6.2423  23.0958   H        12 RES12   0.0000
   293 O8       3.7433   6.0861  21.8554   O.3      12 RES12   0.0000
   294 N8       5.1676   4.5316  17.9761   N.2      12 RES12   0.0000
   295 C19      3.0343   6.0173  20.6074   C.3      12 RES12   0.0000
   296 H24      2.4597   5.2222  20.6074   H        12 RES12   0.0000
   297 C20      5.9695   5.5560  17.7043   C.2      12 RES12   0.0000
   298 N9       6.9433   5.3726  16.8079   N.3      12 RES12   0.0000
   299 H25      7.0372   4.6090  16.4249   H        12 RES12   0.0000
   300 H26      7.4762   6.0188  16.6138   H        12 RES12   0.0000
   301 C21      5.8099   6.8068  18.3281   C.2      12 RES12   0.0000
   302 H27      6.3438   7.5331  18.1016   H        12 RES12   0.0000
   303 C22      2.1615   7.2724  20.4366   C.3      12 RES12   0.0000
   304 H28      1.2304   7.0231  20.3216   H        12 RES12   0.0000
   305 H29      2.4451   7.7796  19.6594   H        12 RES12   0.0000
   306 O9       4.1103   5.9557  24.6996   O.3      12 RES12   0.0000
   307 H30      4.7005   6.1090  25.2495   H        12 RES12   0.0000
   308 C23      4.8673   6.9056  19.2517   C.2      12 RES12   0.0000
   309 H31      4.7516   7.7165  19.6908   H        12 RES12   0.0000
   310 C24      3.8142   7.1262  23.9949   C.3      12 RES12   0.0000
   311 H32      4.6369   7.5518  23.7057   H        12 RES12   0.0000
   312 H33      3.3398   7.7452  24.5734   H        12 RES12   0.0000
   313 S4       8.2467   9.4558   3.9173   S.3      13 RES13   0.0000
   314 N10      5.8235   7.9687   6.1648   N.am     13 RES13   0.0000
   315 O10      6.1259   5.7924   6.6802   O.2      13 RES13   0.0000
   316 C25      6.8651   8.8870   2.9205   C.3      13 RES13   0.0000
   317 H34      7.1175   8.1263   2.3559   H        13 RES13   0.0000
   318 C26      5.6316   6.8813   7.0155   C.2      13 RES13   0.0000
   319 N11      4.9153   7.0489   8.1415   N.2      13 RES13   0.0000
   320 O11      5.9496   8.5074   3.9221   O.3      13 RES13   0.0000
   321 N12      3.7412   8.3670   9.5910   N.3      13 RES13   0.0000
   322 H35      3.4096   9.1850   9.8001   H        13 RES13   0.0000
   323 H36      3.7725   7.6893  10.1347   H        13 RES13   0.0000
   324 C27      4.4304   8.2509   8.4583   C.2      13 RES13   0.0000
   325 C28      6.6013   7.7538   4.9454   C.3      13 RES13   0.0000
   326 H37      6.4418   6.8168   4.7049   H        13 RES13   0.0000
   327 C29      4.6473   9.3742   7.6393   C.2      13 RES13   0.0000
   328 H38      4.3095  10.2080   7.8728   H        13 RES13   0.0000
   329 C30      8.0236   8.5074   5.2067   C.3      13 RES13   0.0000
   330 H39      8.6846   7.8813   5.5413   H        13 RES13   0.0000
   331 H40      7.9172   9.2223   5.8550   H        13 RES13   0.0000
   332 O12      5.3699   9.5618   1.1916   O.3      13 RES13   0.0000
   333 H43      5.2114  10.1550   0.6482   H        13 RES13   0.0000
   334 C32      5.3480   9.2094   6.5241   C.2      13 RES13   0.0000
   335 H44      5.5211   9.9429   5.9769   H        13 RES13   0.0000
   336 C33      6.3480  10.0160   2.1120   C.3      13 RES13   0.0000
   337 H45      5.9559  10.6822   2.7010   H        13 RES13   0.0000
   338 H46      7.0789  10.4315   1.6310   H        13 RES13   0.0000
   339 S4       7.3938   4.8712  21.3428   S.3      14 RES14   0.0000
   340 N10      9.8170   6.3583  23.5903   N.am     14 RES14   0.0000
   341 O10      9.5146   8.5346  24.1057   O.2      14 RES14   0.0000
   342 C25      8.7754   5.4400  20.3460   C.3      14 RES14   0.0000
   343 H34      8.5230   6.2007  19.7814   H        14 RES14   0.0000
   344 C26     10.0089   7.4457  24.4410   C.2      14 RES14   0.0000
   345 N11     10.7252   7.2781  25.5670   N.2      14 RES14   0.0000
   346 O11      9.6909   5.8196  21.3476   O.3      14 RES14   0.0000
   347 N12     11.8993   5.9600  27.0165   N.3      14 RES14   0.0000
   348 H35     12.2309   5.1420  27.2256   H        14 RES14   0.0000
   349 H36     11.8680   6.6377  27.5602   H        14 RES14   0.0000
   350 C27     11.2101   6.0761  25.8838   C.2      14 RES14   0.0000
   351 C28      9.0392   6.5732  22.3709   C.3      14 RES14   0.0000
   352 H37      9.1987   7.5102  22.1304   H        14 RES14   0.0000
   353 C29     10.9932   4.9528  25.0648   C.2      14 RES14   0.0000
   354 H38     11.3310   4.1190  25.2983   H        14 RES14   0.0000
   355 C30      7.6169   5.8196  22.6322   C.3      14 RES14   0.0000
   356 H39      6.9559   6.4457  22.9668   H        14 RES14   0.0000
   357 H40      7.7233   5.1047  23.2805   H        14 RES14   0.0000
   358 O12     10.2706   4.7652  18.6171   O.3      14 RES14   0.0000
   359 H43     10.4291   4.1720  18.0737   H        14 RES14   0.0000
   360 C32     10.2925   5.1176  23.9496   C.2      14 RES14   0.0000
   361 H44     10.1194   4.3841  23.4024   H        14 RES14   0.0000
   362 C33      9.2925   4.3110  19.5375   C.3      14 RES14   0.0000
   363 H45      9.6846   3.6448  20.1265   H        14 RES14   0.0000
   364 H46      8.5616   3.8955  19.0565   H        14 RES14   0.0000
   365 S4       3.0332  12.0347  30.9337   S.3      15 RES15   0.0000
   366 N10      0.6100  13.5218  28.6862   N.am     15 RES15   0.0000
   367 O10      0.9124  15.6981  28.1708   O.2      15 RES15   0.0000
   368 C25      1.6516  12.6035  31.9305   C.3      15 RES15   0.0000
   369 H34      1.9040  13.3642  32.4951   H        15 RES15   0.0000
   370 C26      0.4181  14.6092  27.8355   C.2      15 RES15   0.0000
   371 N11     -0.2982  14.4416  26.7095   N.2      15 RES15   0.0000
   372 O11      0.7361  12.9831  30.9289   O.3      15 RES15   0.0000
   373 N12     -1.4723  13.1235  25.2600   N.3      15 RES15   0.0000
   374 H35     -1.8039  12.3055  25.0509   H        15 RES15   0.0000
   375 H36     -1.4410  13.8012  24.7163   H        15 RES15   0.0000
   376 C27     -0.7831  13.2396  26.3927   C.2      15 RES15   0.0000
   377 C28      1.3878  13.7367  29.9056   C.3      15 RES15   0.0000
   378 H37      1.2283  14.6737  30.1461   H        15 RES15   0.0000
   379 C29     -0.5662  12.1163  27.2117   C.2      15 RES15   0.0000
   380 H38     -0.9040  11.2825  26.9782   H        15 RES15   0.0000
   381 C30      2.8101  12.9831  29.6443   C.3      15 RES15   0.0000
   382 H39      3.4711  13.6092  29.3097   H        15 RES15   0.0000
   383 H40      2.7037  12.2682  28.9960   H        15 RES15   0.0000
   384 O12      0.1564  11.9287  33.6594   O.3      15 RES15   0.0000
   385 H43     -0.0021  11.3355  34.2028   H        15 RES15   0.0000
   386 C32      0.1345  12.2811  28.3269   C.2      15 RES15   0.0000
   387 H44      0.3076  11.5476  28.8741   H        15 RES15   0.0000
   388 C33      1.1345  11.4745  32.7390   C.3      15 RES15   0.0000
   389 H45      0.7424  10.8083  32.1500   H        15 RES15   0.0000
   390 H46      1.8654  11.0590  33.2200   H        15 RES15   0.0000
   391 S4       2.1803   2.2923  13.5082   S.3      16 RES16   0.0000
   392 N10      4.6035   0.8052  11.2607   N.am     16 RES16   0.0000
   393 O10      4.3011  -1.3711  10.7453   O.2      16 RES16   0.0000
   394 C25      3.5619   1.7235  14.5050   C.3      16 RES16   0.0000
   395 H34      3.3095   0.9628  15.0696   H        16 RES16   0.0000
   396 C26      4.7954  -0.2822  10.4100   C.2      16 RES16   0.0000
   397 N11      5.5117  -0.1146   9.2840   N.2      16 RES16   0.0000
   398 O11      4.4774   1.3439  13.5034   O.3      16 RES16   0.0000
   399 N12      6.6858   1.2035   7.8345   N.3      16 RES16   0.0000
   400 H35      7.0174   2.0215   7.6254   H        16 RES16   0.0000
   401 H36      6.6545   0.5258   7.2908   H        16 RES16   0.0000
   402 C27      5.9966   1.0874   8.9672   C.2      16 RES16   0.0000
   403 C28      3.8257   0.5903  12.4801   C.3      16 RES16   0.0000
   404 H37      3.9852  -0.3467  12.7206   H        16 RES16   0.0000
   405 C29      5.7797   2.2107   9.7862   C.2      16 RES16   0.0000
   406 H38      6.1175   3.0445   9.5527   H        16 RES16   0.0000
   407 C30      2.4034   1.3439  12.2188   C.3      16 RES16   0.0000
   408 H39      1.7424   0.7178  11.8842   H        16 RES16   0.0000
   409 H40      2.5098   2.0588  11.5705   H        16 RES16   0.0000
   410 O12      5.0571   2.3983  16.2339   O.3      16 RES16   0.0000
   411 H43      5.2156   2.9915  16.7773   H        16 RES16   0.0000
   412 C32      5.0790   2.0459  10.9014   C.2      16 RES16   0.0000
   413 H44      4.9059   2.7794  11.4486   H        16 RES16   0.0000
   414 C33      4.0790   2.8525  15.3135   C.3      16 RES16   0.0000
   415 H45      4.4711   3.5187  14.7245   H        16 RES16   0.0000
   416 H46      3.3481   3.2680  15.7945   H        16 RES16   0.0000
   417 S6       4.3512  -1.3654   6.0348   S.3      17 RES17   0.0000
   418 N13      2.6370   1.2393   7.1546   N.am     17 RES17   0.0000
   419 C34      1.9676   1.5215   8.3503   C.2      17 RES17   0.0000
   420 O13      1.2241   0.6461   8.8152   O.2      17 RES17   0.0000
   421 C36      3.4513  -0.7737   4.5446   C.3      17 RES17   0.0000
   422 H48      2.9998  -1.5373   4.1298   H        17 RES17   0.0000
   423 N14      2.1459   2.7164   8.9292   N.2      17 RES17   0.0000
   424 O14      2.3732   0.2063   5.0792   O.3      17 RES17   0.0000
   425 C37      3.0113   3.5961   8.4061   C.2      17 RES17   0.0000
   426 N15      3.2042   4.7394   9.0578   N.3      17 RES17   0.0000
   427 H49      3.7214   5.3870   8.7337   H        17 RES17   0.0000
   428 H50      2.7058   4.9442   9.8524   H        17 RES17   0.0000
   429 C38      2.3304  -0.0172   6.4614   C.3      17 RES17   0.0000
   430 H51      1.3712  -0.1218   6.6287   H        17 RES17   0.0000
   431 C39      3.7151   3.3253   7.2037   C.2      17 RES17   0.0000
   432 H52      4.3116   3.9414   6.8413   H        17 RES17   0.0000
   433 C41      2.8779  -1.2422   7.0155   C.3      17 RES17   0.0000
   434 H55      2.2866  -1.9986   6.8796   H        17 RES17   0.0000
   435 H56      3.0791  -1.1533   7.9635   H        17 RES17   0.0000
   436 C42      4.1395   0.0315   3.4572   C.3      17 RES17   0.0000
   437 H57      4.6035  -0.5645   2.8473   H        17 RES17   0.0000
   438 H58      3.4826   0.5344   2.9519   H        17 RES17   0.0000
   439 O15      5.0331   0.8868   4.0445   O.3      17 RES17   0.0000
   440 H59      5.5503   0.4613   4.5167   H        17 RES17   0.0000
   441 C43      3.4889   2.1533   6.6077   C.2      17 RES17   0.0000
   442 H60      3.9195   1.9556   5.8097   H        17 RES17   0.0000
   443 S6       0.8623  15.6924  23.4603   S.3      18 RES18   0.0000
   444 N13      2.5765  13.0877  24.5801   N.am     18 RES18   0.0000
   445 C34      3.2459  12.8055  25.7758   C.2      18 RES18   0.0000
   446 O13      3.9894  13.6809  26.2407   O.2      18 RES18   0.0000
   447 C36      1.7622  15.1007  21.9701   C.3      18 RES18   0.0000
   448 H48      2.2137  15.8643  21.5553   H        18 RES18   0.0000
   449 N14      3.0676  11.6106  26.3547   N.2      18 RES18   0.0000
   450 O14      2.8403  14.1207  22.5047   O.3      18 RES18   0.0000
   451 C37      2.2022  10.7309  25.8316   C.2      18 RES18   0.0000
   452 N15      2.0093   9.5876  26.4833   N.3      18 RES18   0.0000
   453 H49      1.4921   8.9400  26.1592   H        18 RES18   0.0000
   454 H50      2.5077   9.3828  27.2779   H        18 RES18   0.0000
   455 C38      2.8831  14.3442  23.8869   C.3      18 RES18   0.0000
   456 H51      3.8423  14.4488  24.0542   H        18 RES18   0.0000
   457 C39      1.4984  11.0017  24.6292   C.2      18 RES18   0.0000
   458 H52      0.9019  10.3856  24.2668   H        18 RES18   0.0000
   459 C41      2.3356  15.5692  24.4410   C.3      18 RES18   0.0000
   460 H55      2.9269  16.3256  24.3051   H        18 RES18   0.0000
   461 H56      2.1344  15.4803  25.3890   H        18 RES18   0.0000
   462 C42      1.0740  14.2955  20.8827   C.3      18 RES18   0.0000
   463 H57      0.6100  14.8915  20.2728   H        18 RES18   0.0000
   464 H58      1.7309  13.7926  20.3774   H        18 RES18   0.0000
   465 O15      0.1804  13.4402  21.4700   O.3      18 RES18   0.0000
   466 H59     -0.3368  13.8657  21.9422   H        18 RES18   0.0000
   467 C43      1.7246  12.1737  24.0332   C.2      18 RES18   0.0000
   468 H60      1.2940  12.3714  23.2352   H        18 RES18   0.0000
   469 S6       9.5647   8.5289  28.8162   S.3      19 RES19   0.0000
   470 N13      7.8505   5.9242  27.6964   N.am     19 RES19   0.0000
   471 C34      7.1811   5.6420  26.5007   C.2      19 RES19   0.0000
   472 O13      6.4376   6.5174  26.0358   O.2      19 RES19   0.0000
   473 C36      8.6648   7.9372  30.3064   C.3      19 RES19   0.0000
   474 H48      8.2133   8.7008  30.7212   H        19 RES19   0.0000
   475 N14      7.3594   4.4471  25.9218   N.2      19 RES19   0.0000
   476 O14      7.5867   6.9572  29.7718   O.3      19 RES19   0.0000
   477 C37      8.2248   3.5674  26.4449   C.2      19 RES19   0.0000
   478 N15      8.4177   2.4241  25.7932   N.3      19 RES19   0.0000
   479 H49      8.9349   1.7765  26.1173   H        19 RES19   0.0000
   480 H50      7.9193   2.2193  24.9986   H        19 RES19   0.0000
   481 C38      7.5439   7.1807  28.3896   C.3      19 RES19   0.0000
   482 H51      6.5847   7.2853  28.2223   H        19 RES19   0.0000
   483 C39      8.9286   3.8382  27.6473   C.2      19 RES19   0.0000
   484 H52      9.5251   3.2221  28.0097   H        19 RES19   0.0000
   485 C41      8.0914   8.4057  27.8355   C.3      19 RES19   0.0000
   486 H55      7.5001   9.1621  27.9714   H        19 RES19   0.0000
   487 H56      8.2926   8.3168  26.8875   H        19 RES19   0.0000
   488 C42      9.3530   7.1320  31.3938   C.3      19 RES19   0.0000
   489 H57      9.8170   7.7280  32.0037   H        19 RES19   0.0000
   490 H58      8.6961   6.6291  31.8991   H        19 RES19   0.0000
   491 O15     10.2466   6.2767  30.8065   O.3      19 RES19   0.0000
   492 H59     10.7638   6.7022  30.3343   H        19 RES19   0.0000
   493 C43      8.7024   5.0102  28.2433   C.2      19 RES19   0.0000
   494 H60      9.1330   5.2079  29.0413   H        19 RES19   0.0000
   495 S6       6.0758   5.7981  11.3907   S.3      20 RES20   0.0000
   496 N13      7.7900   8.4028  10.2709   N.am     20 RES20   0.0000
   497 C34      8.4594   8.6850   9.0752   C.2      20 RES20   0.0000
   498 O13      9.2029   7.8096   8.6103   O.2      20 RES20   0.0000
   499 C36      6.9757   6.3898  12.8809   C.3      20 RES20   0.0000
   500 H48      7.4272   5.6262  13.2957   H        20 RES20   0.0000
   501 N14      8.2811   9.8799   8.4963   N.2      20 RES20   0.0000
   502 O14      8.0538   7.3698  12.3463   O.3      20 RES20   0.0000
   503 C37      7.4157  10.7596   9.0194   C.2      20 RES20   0.0000
   504 N15      7.2228  11.9029   8.3677   N.3      20 RES20   0.0000
   505 H49      6.7056  12.5505   8.6918   H        20 RES20   0.0000
   506 H50      7.7212  12.1077   7.5731   H        20 RES20   0.0000
   507 C38      8.0966   7.1463  10.9641   C.3      20 RES20   0.0000
   508 H51      9.0558   7.0417  10.7968   H        20 RES20   0.0000
   509 C39      6.7119  10.4888  10.2218   C.2      20 RES20   0.0000
   510 H52      6.1154  11.1049  10.5842   H        20 RES20   0.0000
   511 C41      7.5491   5.9213  10.4100   C.3      20 RES20   0.0000
   512 H55      8.1404   5.1649  10.5459   H        20 RES20   0.0000
   513 H56      7.3479   6.0102   9.4620   H        20 RES20   0.0000
   514 C42      6.2875   7.1950  13.9683   C.3      20 RES20   0.0000
   515 H57      5.8235   6.5990  14.5782   H        20 RES20   0.0000
   516 H58      6.9444   7.6979  14.4736   H        20 RES20   0.0000
   517 O15      5.3939   8.0503  13.3810   O.3      20 RES20   0.0000
   518 H59      4.8767   7.6248  12.9088   H        20 RES20   0.0000
   519 C43      6.9381   9.3168  10.8178   C.2      20 RES20   0.0000
   520 H60      6.5075   9.1191  11.6158   H        20 RES20   0.0000
   521 O16      7.6138   3.4643  33.3629   O.3      21 RES21   0.0000
   522 H61      6.8568   3.3009  33.1782   H        21 RES21   0.0000
   523 H62      7.7306   3.9786  34.2411   H        21 RES21   0.0000
   524 O16      8.0267  10.8627  15.9374   O.3      22 RES22   0.0000
   525 H61      8.7837  11.0261  15.7527   H        22 RES22   0.0000
   526 H62      7.9099  10.3484  16.8156   H        22 RES22   0.0000
   527 O16      2.4003   3.6992   1.4881   O.3      23 RES23   0.0000
   528 H61      1.6433   3.8626   1.6728   H        23 RES23   0.0000
   529 H62      2.5171   3.1849   0.6099   H        23 RES23   0.0000
   530 O16      2.8132  10.6278  18.9136   O.3      24 RES24   0.0000
   531 H61      3.5702  10.4644  19.0983   H        24 RES24   0.0000
   532 H62      2.6964  11.1421  18.0354   H        24 RES24   0.0000
@<TRIPOS>BOND
     1     1     5    1
     2     1    15    1
     3     2     4   un
     4     2    13    1
     5     2    22   un
     6     3     4    2
     7     4     8   un
     8     5     6    1
     9     5     7    1
    10     5    24    1
    11     7    13    1
    12     8     9   un
    13     9    10    1
    14     9    18   un
    15    10    11    1
    16    10    12    1
    17    13    14    1
    18    13    15    1
    19    15    16    1
    20    15    17    1
    21    18    19    1
    22    18    22   un
    23    20    21    1
    24    20    24    1
    25    22    23    1
    26    24    25    1
    27    24    26    1
    28    27    31    1
    29    27    41    1
    30    28    30   un
    31    28    39    1
    32    28    48   un
    33    29    30    2
    34    30    34   un
    35    31    32    1
    36    31    33    1
    37    31    50    1
    38    33    39    1
    39    34    35   un
    40    35    36    1
    41    35    44   un
    42    36    37    1
    43    36    38    1
    44    39    40    1
    45    39    41    1
    46    41    42    1
    47    41    43    1
    48    44    45    1
    49    44    48   un
    50    46    47    1
    51    46    50    1
    52    48    49    1
    53    50    51    1
    54    50    52    1
    55    53    57    1
    56    53    67    1
    57    54    56   un
    58    54    65    1
    59    54    74   un
    60    55    56    2
    61    56    60   un
    62    57    58    1
    63    57    59    1
    64    57    76    1
    65    59    65    1
    66    60    61   un
    67    61    62    1
    68    61    70   un
    69    62    63    1
    70    62    64    1
    71    65    66    1
    72    65    67    1
    73    67    68    1
    74    67    69    1
    75    70    71    1
    76    70    74   un
    77    72    73    1
    78    72    76    1
    79    74    75    1
    80    76    77    1
    81    76    78    1
    82    79    83    1
    83    79    93    1
    84    80    82   un
    85    80    91    1
    86    80   100   un
    87    81    82    2
    88    82    86   un
    89    83    84    1
    90    83    85    1
    91    83   102    1
    92    85    91    1
    93    86    87   un
    94    87    88    1
    95    87    96   un
    96    88    89    1
    97    88    90    1
    98    91    92    1
    99    91    93    1
   100    93    94    1
   101    93    95    1
   102    96    97    1
   103    96   100   un
   104    98    99    1
   105    98   102    1
   106   100   101    1
   107   102   103    1
   108   102   104    1
   109   105   109    1
   110   105   121    1
   111   106   108   un
   112   106   117    1
   113   106   126   un
   114   107   108    2
   115   108   112   un
   116   109   110    1
   117   109   111    1
   118   109   128    1
   119   111   117    1
   120   112   116   un
   121   113   114    1
   122   113   115    1
   123   113   116    1
   124   116   119   un
   125   117   118    1
   126   117   121    1
   127   119   120    1
   128   119   126   un
   129   121   122    1
   130   121   123    1
   131   124   125    1
   132   124   128    1
   133   126   127    1
   134   128   129    1
   135   128   130    1
   136   131   135    1
   137   131   147    1
   138   132   134   un
   139   132   143    1
   140   132   152   un
   141   133   134    2
   142   134   138   un
   143   135   136    1
   144   135   137    1
   145   135   154    1
   146   137   143    1
   147   138   142   un
   148   139   140    1
   149   139   141    1
   150   139   142    1
   151   142   145   un
   152   143   144    1
   153   143   147    1
   154   145   146    1
   155   145   152   un
   156   147   148    1
   157   147   149    1
   158   150   151    1
   159   150   154    1
   160   152   153    1
   161   154   155    1
   162   154   156    1
   163   157   161    1
   164   157   173    1
   165   158   160   un
   166   158   169    1
   167   158   178   un
   168   159   160    2
   169   160   164   un
   170   161   162    1
   171   161   163    1
   172   161   180    1
   173   163   169    1
   174   164   168   un
   175   165   166    1
   176   165   167    1
   177   165   168    1
   178   168   171   un
   179   169   170    1
   180   169   173    1
   181   171   172    1
   182   171   178   un
   183   173   174    1
   184   173   175    1
   185   176   177    1
   186   176   180    1
   187   178   179    1
   188   180   181    1
   189   180   182    1
   190   183   187    1
   191   183   199    1
   192   184   186   un
   193   184   195    1
   194   184   204   un
   195   185   186    2
   196   186   190   un
   197   187   188    1
   198   187   189    1
   199   187   206    1
   200   189   195    1
   201   190   194   un
   202   191   192    1
   203   191   193    1
   204   191   194    1
   205   194   197   un
   206   195   196    1
   207   195   199    1
   208   197   198    1
   209   197   204   un
   210   199   200    1
   211   199   201    1
   212   202   203    1
   213   202   206    1
   214   204   205    1
   215   206   207    1
   216   206   208    1
   217   209   213    1
   218   209   225    1
   219   210   212   un
   220   210   217    1
   221   210   230   un
   222   211   212    2
   223   212   216   un
   224   213   214    1
   225   213   215    1
   226   213   232    1
   227   215   217    1
   228   216   219   un
   229   217   218    1
   230   217   225    1
   231   219   220    1
   232   219   223   un
   233   220   221    1
   234   220   222    1
   235   223   224    1
   236   223   230   un
   237   225   226    1
   238   225   227    1
   239   228   229    1
   240   228   232    1
   241   230   231    1
   242   232   233    1
   243   232   234    1
   244   235   239    1
   245   235   251    1
   246   236   238   un
   247   236   243    1
   248   236   256   un
   249   237   238    2
   250   238   242   un
   251   239   240    1
   252   239   241    1
   253   239   258    1
   254   241   243    1
   255   242   245   un
   256   243   244    1
   257   243   251    1
   258   245   246    1
   259   245   249   un
   260   246   247    1
   261   246   248    1
   262   249   250    1
   263   249   256   un
   264   251   252    1
   265   251   253    1
   266   254   255    1
   267   254   258    1
   268   256   257    1
   269   258   259    1
   270   258   260    1
   271   261   265    1
   272   261   277    1
   273   262   264   un
   274   262   269    1
   275   262   282   un
   276   263   264    2
   277   264   268   un
   278   265   266    1
   279   265   267    1
   280   265   284    1
   281   267   269    1
   282   268   271   un
   283   269   270    1
   284   269   277    1
   285   271   272    1
   286   271   275   un
   287   272   273    1
   288   272   274    1
   289   275   276    1
   290   275   282   un
   291   277   278    1
   292   277   279    1
   293   280   281    1
   294   280   284    1
   295   282   283    1
   296   284   285    1
   297   284   286    1
   298   287   291    1
   299   287   303    1
   300   288   290   un
   301   288   295    1
   302   288   308   un
   303   289   290    2
   304   290   294   un
   305   291   292    1
   306   291   293    1
   307   291   310    1
   308   293   295    1
   309   294   297   un
   310   295   296    1
   311   295   303    1
   312   297   298    1
   313   297   301   un
   314   298   299    1
   315   298   300    1
   316   301   302    1
   317   301   308   un
   318   303   304    1
   319   303   305    1
   320   306   307    1
   321   306   310    1
   322   308   309    1
   323   310   311    1
   324   310   312    1
   325   313   316    1
   326   313   329    1
   327   314   318   un
   328   314   325    1
   329   314   334   un
   330   315   318    2
   331   316   317    1
   332   316   320    1
   333   316   336    1
   334   318   319   un
   335   319   324   un
   336   320   325    1
   337   321   322    1
   338   321   323    1
   339   321   324    1
   340   324   327   un
   341   325   326    1
   342   325   329    1
   343   327   328    1
   344   327   334   un
   345   329   330    1
   346   329   331    1
   347   332   333    1
   348   332   336    1
   349   334   335    1
   350   336   337    1
   351   336   338    1
   352   339   342    1
   353   339   355    1
   354   340   344   un
   355   340   351    1
   356   340   360   un
   357   341   344    2
   358   342   343    1
   359   342   346    1
   360   342   362    1
   361   344   345   un
   362   345   350   un
   363   346   351    1
   364   347   348    1
   365   347   349    1
   366   347   350    1
   367   350   353   un
   368   351   352    1
   369   351   355    1
   370   353   354    1
   371   353   360   un
   372   355   356    1
   373   355   357    1
   374   358   359    1
   375   358   362    1
   376   360   361    1
   377   362   363    1
   378   362   364    1
   379   365   368    1
   380   365   381    1
   381   366   370   un
   382   366   377    1
   383   366   386   un
   384   367   370    2
   385   368   369    1
   386   368   372    1
   387   368   388    1
   388   370   371   un
   389   371   376   un
   390   372   377    1
   391   373   374    1
   392   373   375    1
   393   373   376    1
   394   376   379   un
   395   377   378    1
   396   377   381    1
   397   379   380    1
   398   379   386   un
   399   381   382    1
   400   381   383    1
   401   384   385    1
   402   384   388    1
   403   386   387    1
   404   388   389    1
   405   388   390    1
   406   391   394    1
   407   391   407    1
   408   392   396   un
   409   392   403    1
   410   392   412   un
   411   393   396    2
   412   394   395    1
   413   394   398    1
   414   394   414    1
   415   396   397   un
   416   397   402   un
   417   398   403    1
   418   399   400    1
   419   399   401    1
   420   399   402    1
   421   402   405   un
   422   403   404    1
   423   403   407    1
   424   405   406    1
   425   405   412   un
   426   407   408    1
   427   407   409    1
   428   410   411    1
   429   410   414    1
   430   412   413    1
   431   414   415    1
   432   414   416    1
   433   417   421    1
   434   417   433    1
   435   418   419   un
   436   418   429    1
   437   418   441   un
   438   419   420    2
   439   419   423   un
   440   421   422    1
   441   421   424    1
   442   421   436    1
   443   423   425   un
   444   424   429    1
   445   425   426    1
   446   425   431   un
   447   426   427    1
   448   426   428    1
   449   429   430    1
   450   429   433    1
   451   431   432    1
   452   431   441   un
   453   433   434    1
   454   433   435    1
   455   436   437    1
   456   436   438    1
   457   436   439    1
   458   439   440    1
   459   441   442    1
   460   443   447    1
   461   443   459    1
   462   444   445   un
   463   444   455    1
   464   444   467   un
   465   445   446    2
   466   445   449   un
   467   447   448    1
   468   447   450    1
   469   447   462    1
   470   449   451   un
   471   450   455    1
   472   451   452    1
   473   451   457   un
   474   452   453    1
   475   452   454    1
   476   455   456    1
   477   455   459    1
   478   457   458    1
   479   457   467   un
   480   459   460    1
   481   459   461    1
   482   462   463    1
   483   462   464    1
   484   462   465    1
   485   465   466    1
   486   467   468    1
   487   469   473    1
   488   469   485    1
   489   470   471   un
   490   470   481    1
   491   470   493   un
   492   471   472    2
   493   471   475   un
   494   473   474    1
   495   473   476    1
   496   473   488    1
   497   475   477   un
   498   476   481    1
   499   477   478    1
   500   477   483   un
   501   478   479    1
   502   478   480    1
   503   481   482    1
   504   481   485    1
   505   483   484    1
   506   483   493   un
   507   485   486    1
   508   485   487    1
   509   488   489    1
   510   488   490    1
   511   488   491    1
   512   491   492    1
   513   493   494    1
   514   495   499    1
   515   495   511    1
   516   496   497   un
   517   496   507    1
   518   496   519   un
   519   497   498    2
   520   497   501   un
   521   499   500    1
   522   499   502    1
   523   499   514    1
   524   501   503   un
   525   502   507    1
   526   503   504    1
   527   503   509   un
   528   504   505    1
   529   504   506    1
   530   507   508    1
   531   507   511    1
   532   509   510    1
   533   509   519   un
   534   511   512    1
   535   511   513    1
   536   514   515    1
   537   514   516    1
   538   514   517    1
   539   517   518    1
   540   519   520    1
   541   521   522    1
   542   521   523    1
   543   524   525    1
   544   524   526    1
   545   527   528    1
   546   527   529    1
   547   530   531    1
   548   530   532    1
@<TRIPOS>SUBSTRUCTURE
     1 RES1        1 GROUP             0 ****  ****    0  
     2 RES2       27 GROUP             0 ****  ****    0  
     3 RES3       53 GROUP             0 ****  ****    0  
     4 RES4       79 GROUP             0 ****  ****    0  
     5 RES5      105 GROUP             0 ****  ****    0  
     6 RES6      131 GROUP             0 ****  ****    0  
     7 RES7      157 GROUP             0 ****  ****    0  
     8 RES8      183 GROUP             0 ****  ****    0  
     9 RES9      209 GROUP             0 ****  ****    0  
    10 RES10     235 GROUP             0 ****  ****    0  
    11 RES11     261 GROUP             0 ****  ****    0  
    12 RES12     287 GROUP             0 ****  ****    0  
    13 RES13     313 GROUP             0 ****  ****    0  
    14 RES14     339 GROUP             0 ****  ****    0  
    15 RES15     365 GROUP             0 ****  ****    0  
    16 RES16     391 GROUP             0 ****  ****    0  
    17 RES17     417 GROUP             0 ****  ****    0  
    18 RES18     443 GROUP             0 ****  ****    0  
    19 RES19     469 GROUP             0 ****  ****    0  
    20 RES20     495 GROUP             0 ****  ****    0  
    21 RES21     521 GROUP             0 ****  ****    0  
    22 RES22     524 GROUP             0 ****  ****    0  
    23 RES23     527 GROUP             0 ****  ****    0  
    24 RES24     530 GROUP             0 ****  ****    0  
@<TRIPOS>CRYSIN
   10.4270   14.3270   34.8510   90.0000   90.0000   90.0000    19     1
