@<TRIPOS>MOLECULE
SUTHAZ02
   200   208     8     0     0
SMALL
NO_CHARGES
****
Generated from the CSD

@<TRIPOS>ATOM
     1 C1      -1.1673   2.8277   7.8805   C.2       1 RES1   0.0000
     2 C3      -0.5378   3.5874   6.9075   C.2       1 RES1   0.0000
     3 C5       0.8481   3.7648   6.9333   C.2       1 RES1   0.0000
     4 C7       1.6040   3.2092   7.9623   C.3       1 RES1   0.0000
     5 C9       0.9748   2.4573   8.9511   C.2       1 RES1   0.0000
     6 C11     -0.3655   2.2893   8.9339   C.2       1 RES1   0.0000
     7 C13      3.9863   1.1352   7.1156   C.2       1 RES1   0.0000
     8 C15      4.2172  -0.9294   6.1253   C.2       1 RES1   0.0000
     9 C17      4.1311  -0.1861   5.0288   C.2       1 RES1   0.0000
    10 H1      -2.6126   2.8037   7.0897   H         1 RES1   0.0000
    11 H3      -2.6064   1.7062   8.2379   H         1 RES1   0.0000
    12 H5      -0.9536   3.9783   6.1999   H         1 RES1   0.0000
    13 H7       1.3583   4.1069   6.3004   H         1 RES1   0.0000
    14 H9       1.5202   2.1092   9.5726   H         1 RES1   0.0000
    15 H11     -0.7652   1.7062   9.6587   H         1 RES1   0.0000
    16 H13      4.2830  -0.4973   8.1087   H         1 RES1   0.0000
    17 H15      4.2605  -1.9291   6.0851   H         1 RES1   0.0000
    18 H17      3.8068  -0.5144   3.9180   H         1 RES1   0.0000
    19 N1      -2.5491   2.6125   7.8905   N.3       1 RES1   0.0000
    20 N3       3.9266   1.9257   8.1704   N.2       1 RES1   0.0000
    21 N5       4.1312  -0.1878   7.2921   N.am      1 RES1   0.0000
    22 O1       3.6668   4.0992   9.2496   O.2       1 RES1   0.0000
    23 O3       3.7346   4.0769   6.7926   O.2       1 RES1   0.0000
    24 S1       3.3374   3.4142   8.0140   S.o2      1 RES1   0.0000
    25 S3       3.9559   1.4927   5.4264   S.3       1 RES1   0.0000
    26 C1       9.6305   7.1147  13.6470   C.2       2 RES2   0.0000
    27 C3       9.0010   7.8744  14.6200   C.2       2 RES2   0.0000
    28 C5       7.6151   8.0518  14.5942   C.2       2 RES2   0.0000
    29 C7       6.8592   7.4962  13.5652   C.3       2 RES2   0.0000
    30 C9       7.4883   6.7443  12.5764   C.2       2 RES2   0.0000
    31 C11      8.8286   6.5763  12.5936   C.2       2 RES2   0.0000
    32 C13      4.4769   5.4222  14.4119   C.2       2 RES2   0.0000
    33 C15      4.2460   3.3576  15.4022   C.2       2 RES2   0.0000
    34 C17      4.3321   4.1009  16.4987   C.2       2 RES2   0.0000
    35 H1      11.0758   7.0907  14.4378   H         2 RES2   0.0000
    36 H3      11.0695   5.9932  13.2896   H         2 RES2   0.0000
    37 H5       9.4168   8.2653  15.3276   H         2 RES2   0.0000
    38 H7       7.1049   8.3939  15.2271   H         2 RES2   0.0000
    39 H9       6.9430   6.3962  11.9549   H         2 RES2   0.0000
    40 H11      9.2284   5.9932  11.8688   H         2 RES2   0.0000
    41 H13      4.1802   3.7897  13.4188   H         2 RES2   0.0000
    42 H15      4.2026   2.3579  15.4424   H         2 RES2   0.0000
    43 H17      4.6563   3.7726  17.6095   H         2 RES2   0.0000
    44 N1      11.0122   6.8995  13.6369   N.3       2 RES2   0.0000
    45 N3       4.5366   6.2127  13.3571   N.2       2 RES2   0.0000
    46 N5       4.3319   4.0992  14.2354   N.am      2 RES2   0.0000
    47 O1       4.7964   8.3862  12.2778   O.2       2 RES2   0.0000
    48 O3       4.7286   8.3639  14.7348   O.2       2 RES2   0.0000
    49 S1       5.1258   7.7012  13.5135   S.o2      2 RES2   0.0000
    50 S3       4.5073   5.7797  16.1011   S.3       2 RES2   0.0000
    51 C1      12.6661   5.7463   6.4712   C.2       3 RES3   0.0000
    52 C3      12.0366   4.9866   7.4442   C.2       3 RES3   0.0000
    53 C5      10.6507   4.8092   7.4184   C.2       3 RES3   0.0000
    54 C7       9.8948   5.3648   6.3894   C.3       3 RES3   0.0000
    55 C9      10.5239   6.1167   5.4005   C.2       3 RES3   0.0000
    56 C11     11.8643   6.2847   5.4177   C.2       3 RES3   0.0000
    57 C13      7.5125   7.4388   7.2361   C.2       3 RES3   0.0000
    58 C15      7.2816   9.5034   8.2264   C.2       3 RES3   0.0000
    59 C17      7.3677   8.7601   9.3228   C.2       3 RES3   0.0000
    60 H1      14.1114   5.7703   7.2619   H         3 RES3   0.0000
    61 H3      14.1052   6.8678   6.1138   H         3 RES3   0.0000
    62 H5      12.4524   4.5957   8.1517   H         3 RES3   0.0000
    63 H7      10.1405   4.4671   8.0513   H         3 RES3   0.0000
    64 H9       9.9786   6.4648   4.7791   H         3 RES3   0.0000
    65 H11     12.2640   6.8678   4.6930   H         3 RES3   0.0000
    66 H13      7.2158   9.0713   6.2430   H         3 RES3   0.0000
    67 H15      7.2382  10.5031   8.2666   H         3 RES3   0.0000
    68 H17      7.6919   9.0884  10.4337   H         3 RES3   0.0000
    69 N1      14.0478   5.9615   6.4611   N.3       3 RES3   0.0000
    70 N3       7.5722   6.6483   6.1813   N.2       3 RES3   0.0000
    71 N5       7.3676   8.7618   7.0596   N.am      3 RES3   0.0000
    72 O1       7.8320   4.4748   5.1020   O.2       3 RES3   0.0000
    73 O3       7.7642   4.4971   7.5590   O.2       3 RES3   0.0000
    74 S1       8.1614   5.1598   6.3377   S.o2      3 RES3   0.0000
    75 S3       7.5429   7.0813   8.9253   S.3       3 RES3   0.0000
    76 C1       1.8683   1.4593   0.7047   C.2       4 RES4   0.0000
    77 C3       2.4978   0.6996  -0.2684   C.2       4 RES4   0.0000
    78 C5       3.8837   0.5222  -0.2425   C.2       4 RES4   0.0000
    79 C7       4.6396   1.0778   0.7865   C.3       4 RES4   0.0000
    80 C9       4.0105   1.8297   1.7753   C.2       4 RES4   0.0000
    81 C11      2.6701   1.9977   1.7581   C.2       4 RES4   0.0000
    82 C13      7.0219   3.1518  -0.0603   C.2       4 RES4   0.0000
    83 C15      7.2528   5.2164  -1.0505   C.2       4 RES4   0.0000
    84 C17      7.1667   4.4731  -2.1470   C.2       4 RES4   0.0000
    85 H1       0.4230   1.4833  -0.0861   H         4 RES4   0.0000
    86 H3       0.4292   2.5808   1.0620   H         4 RES4   0.0000
    87 H5       2.0820   0.3087  -0.9759   H         4 RES4   0.0000
    88 H7       4.3939   0.1801  -0.8755   H         4 RES4   0.0000
    89 H9       4.5558   2.1778   2.3967   H         4 RES4   0.0000
    90 H11      2.2704   2.5808   2.4828   H         4 RES4   0.0000
    91 H13      7.3186   4.7843   0.9329   H         4 RES4   0.0000
    92 H15      7.2961   6.2161  -1.0907   H         4 RES4   0.0000
    93 H17      6.8424   4.8014  -3.2578   H         4 RES4   0.0000
    94 N1       0.4865   1.6745   0.7147   N.3       4 RES4   0.0000
    95 N3       6.9622   2.3613   0.9946   N.2       4 RES4   0.0000
    96 N5       7.1668   4.4748   0.1162   N.am      4 RES4   0.0000
    97 O1       6.7024   0.1878   2.0738   O.2       4 RES4   0.0000
    98 O3       6.7702   0.2101  -0.3832   O.2       4 RES4   0.0000
    99 S1       6.3730   0.8728   0.8381   S.o2      4 RES4   0.0000
   100 S3       6.9915   2.7943  -1.7495   S.3       4 RES4   0.0000
   101 C2       6.1856   2.8929  11.6851   C.2       5 RES5   0.0000
   102 C4       6.8313   3.5453  10.6489   C.2       5 RES5   0.0000
   103 C6       8.1968   3.6585  10.6317   C.2       5 RES5   0.0000
   104 C8       8.9377   3.1124  11.6837   C.3       5 RES5   0.0000
   105 C10      8.2826   2.4762  12.7256   C.2       5 RES5   0.0000
   106 C12      6.8919   2.3750  12.7443   C.2       5 RES5   0.0000
   107 C14     11.3078   0.9440  10.9073   C.2       5 RES5   0.0000
   108 C16     11.5704  -1.1223   9.9127   C.2       5 RES5   0.0000
   109 C18     11.4662  -0.3875   8.8134   C.2       5 RES5   0.0000
   110 H2       4.2507   3.0523  11.0508   H         5 RES5   0.0000
   111 H4       4.3899   1.9120  11.9262   H         5 RES5   0.0000
   112 H6       6.4298   3.9355   9.8452   H         5 RES5   0.0000
   113 H8       8.9679   4.0898   9.7017   H         5 RES5   0.0000
   114 H10      8.7982   2.1864  13.2179   H         5 RES5   0.0000
   115 H12      6.4853   1.8949  13.5767   H         5 RES5   0.0000
   116 H14     11.4457  -0.7374  12.0267   H         5 RES5   0.0000
   117 H16     11.6104  -2.1092  10.0175   H         5 RES5   0.0000
   118 N2       4.7689   2.7694  11.7282   N.3       5 RES5   0.0000
   119 N4      11.2163   1.7577  11.9377   N.2       5 RES5   0.0000
   120 N6      11.4894  -0.3764  11.0594   N.am      5 RES5   0.0000
   121 O2      11.0300   3.9535  12.9552   O.2       5 RES5   0.0000
   122 O4      11.1386   3.8600  10.5097   O.2       5 RES5   0.0000
   123 S2      10.7004   3.2598  11.7368   S.o2      5 RES5   0.0000
   124 S4      11.2837   1.2972   9.1908   S.3       5 RES5   0.0000
   125 H       11.4919  -0.7902   7.8018   H         5 RES5   0.0000
   126 C2       2.2775   7.1799   9.8424   C.2       6 RES6   0.0000
   127 C4       1.6318   7.8323  10.8786   C.2       6 RES6   0.0000
   128 C6       0.2664   7.9455  10.8958   C.2       6 RES6   0.0000
   129 C8      -0.4746   7.3994   9.8438   C.3       6 RES6   0.0000
   130 C10      0.1806   6.7632   8.8019   C.2       6 RES6   0.0000
   131 C12      1.5712   6.6620   8.7832   C.2       6 RES6   0.0000
   132 C14     -2.8446   5.2310  10.6202   C.2       6 RES6   0.0000
   133 C16     -3.1073   3.1647  11.6148   C.2       6 RES6   0.0000
   134 C18     -3.0030   3.8995  12.7141   C.2       6 RES6   0.0000
   135 H2       4.2124   7.3393  10.4767   H         6 RES6   0.0000
   136 H4       4.0733   6.1990   9.6013   H         6 RES6   0.0000
   137 H6       2.0333   8.2225  11.6822   H         6 RES6   0.0000
   138 H8      -0.5048   8.3768  11.8258   H         6 RES6   0.0000
   139 H10     -0.3351   6.4734   8.3096   H         6 RES6   0.0000
   140 H12      1.9778   6.1819   7.9508   H         6 RES6   0.0000
   141 H14     -2.9825   3.5496   9.5008   H         6 RES6   0.0000
   142 H16     -3.1473   2.1778  11.5100   H         6 RES6   0.0000
   143 N2       3.6943   7.0564   9.7993   N.3       6 RES6   0.0000
   144 N4      -2.7531   6.0447   9.5898   N.2       6 RES6   0.0000
   145 N6      -3.0263   3.9106  10.4681   N.am      6 RES6   0.0000
   146 O2      -2.5669   8.2405   8.5722   O.2       6 RES6   0.0000
   147 O4      -2.6755   8.1470  11.0178   O.2       6 RES6   0.0000
   148 S2      -2.2372   7.5468   9.7907   S.o2      6 RES6   0.0000
   149 S4      -2.8205   5.5842  12.3367   S.3       6 RES6   0.0000
   150 H       -3.0287   3.4968  13.7257   H         6 RES6   0.0000
   151 C2       5.3131   5.6811   2.6665   C.2       7 RES7   0.0000
   152 C4       4.6675   5.0287   3.7027   C.2       7 RES7   0.0000
   153 C6       3.3020   4.9155   3.7199   C.2       7 RES7   0.0000
   154 C8       2.5611   5.4616   2.6680   C.3       7 RES7   0.0000
   155 C10      3.2162   6.0978   1.6260   C.2       7 RES7   0.0000
   156 C12      4.6068   6.1990   1.6074   C.2       7 RES7   0.0000
   157 C14      0.1910   7.6300   3.4444   C.2       7 RES7   0.0000
   158 C16     -0.0716   9.6963   4.4390   C.2       7 RES7   0.0000
   159 C18      0.0326   8.9615   5.5383   C.2       7 RES7   0.0000
   160 H2       7.2481   5.5217   3.3009   H         7 RES7   0.0000
   161 H4       7.1089   6.6620   2.4254   H         7 RES7   0.0000
   162 H6       5.0689   4.6385   4.5064   H         7 RES7   0.0000
   163 H8       2.5308   4.4842   4.6499   H         7 RES7   0.0000
   164 H10      2.7005   6.3876   1.1338   H         7 RES7   0.0000
   165 H12      5.0134   6.6791   0.7750   H         7 RES7   0.0000
   166 H14      0.0531   9.3114   2.3250   H         7 RES7   0.0000
   167 H16     -0.1117  10.6832   4.3342   H         7 RES7   0.0000
   168 N2       6.7299   5.8046   2.6235   N.3       7 RES7   0.0000
   169 N4       0.2825   6.8163   2.4139   N.2       7 RES7   0.0000
   170 N6       0.0093   8.9504   3.2923   N.am      7 RES7   0.0000
   171 O2       0.4687   4.6205   1.3964   O.2       7 RES7   0.0000
   172 O4       0.3601   4.7140   3.8419   O.2       7 RES7   0.0000
   173 S2       0.7984   5.3142   2.6149   S.o2      7 RES7   0.0000
   174 S4       0.2151   7.2768   5.1609   S.3       7 RES7   0.0000
   175 H        0.0069   9.3642   6.5498   H         7 RES7   0.0000
   176 C2       9.2213   1.3941   4.5093   C.2       8 RES8   0.0000
   177 C4       9.8669   0.7417   3.4731   C.2       8 RES8   0.0000
   178 C6      11.2324   0.6285   3.4559   C.2       8 RES8   0.0000
   179 C8      11.9733   1.1746   4.5079   C.3       8 RES8   0.0000
   180 C10     11.3182   1.8108   5.5498   C.2       8 RES8   0.0000
   181 C12      9.9275   1.9120   5.5684   C.2       8 RES8   0.0000
   182 C14     14.3434   3.3430   3.7314   C.2       8 RES8   0.0000
   183 C16     14.6060   5.4093   2.7369   C.2       8 RES8   0.0000
   184 C18     14.5018   4.6745   1.6375   C.2       8 RES8   0.0000
   185 H2       7.2863   1.2347   3.8749   H         8 RES8   0.0000
   186 H4       7.4255   2.3750   4.7504   H         8 RES8   0.0000
   187 H6       9.4655   0.3515   2.6694   H         8 RES8   0.0000
   188 H8      12.0035   0.1972   2.5259   H         8 RES8   0.0000
   189 H10     11.8338   2.1006   6.0420   H         8 RES8   0.0000
   190 H12      9.5209   2.3921   6.4008   H         8 RES8   0.0000
   191 H14     14.4813   5.0244   4.8509   H         8 RES8   0.0000
   192 H16     14.6460   6.3962   2.8416   H         8 RES8   0.0000
   193 N2       7.8045   1.5176   4.5523   N.3       8 RES8   0.0000
   194 N4      14.2519   2.5293   4.7619   N.2       8 RES8   0.0000
   195 N6      14.5250   4.6634   3.8836   N.am      8 RES8   0.0000
   196 O2      14.0656   0.3335   5.7794   O.2       8 RES8   0.0000
   197 O4      14.1742   0.4270   3.3339   O.2       8 RES8   0.0000
   198 S2      13.7360   1.0272   4.5610   S.o2      8 RES8   0.0000
   199 S4      14.3193   2.9898   2.0150   S.3       8 RES8   0.0000
   200 H       14.5275   5.0772   0.6260   H         8 RES8   0.0000
@<TRIPOS>BOND
     1     1     2   un
     2     1     6   un
     3     1    19    1
     4     2     3   un
     5     2    12    1
     6     3     4    1
     7     3    13    1
     8     4     5    1
     9     4    24    1
    10     5     6   un
    11     5    14    1
    12     6    15    1
    13     7    20   un
    14     7    21   un
    15     7    25    1
    16     8     9   un
    17     8    17    1
    18     8    21   un
    19     9    18    1
    20     9    25    1
    21    10    19    1
    22    11    19    1
    23    16    21    1
    24    20    24   un
    25    22    24   un
    26    23    24   un
    27    26    27   un
    28    26    31   un
    29    26    44    1
    30    27    28   un
    31    27    37    1
    32    28    29    1
    33    28    38    1
    34    29    30    1
    35    29    49    1
    36    30    31   un
    37    30    39    1
    38    31    40    1
    39    32    45   un
    40    32    46   un
    41    32    50    1
    42    33    34   un
    43    33    42    1
    44    33    46   un
    45    34    43    1
    46    34    50    1
    47    35    44    1
    48    36    44    1
    49    41    46    1
    50    45    49   un
    51    47    49   un
    52    48    49   un
    53    51    52   un
    54    51    56   un
    55    51    69    1
    56    52    53   un
    57    52    62    1
    58    53    54    1
    59    53    63    1
    60    54    55    1
    61    54    74    1
    62    55    56   un
    63    55    64    1
    64    56    65    1
    65    57    70   un
    66    57    71   un
    67    57    75    1
    68    58    59   un
    69    58    67    1
    70    58    71   un
    71    59    68    1
    72    59    75    1
    73    60    69    1
    74    61    69    1
    75    66    71    1
    76    70    74   un
    77    72    74   un
    78    73    74   un
    79    76    77   un
    80    76    81   un
    81    76    94    1
    82    77    78   un
    83    77    87    1
    84    78    79    1
    85    78    88    1
    86    79    80    1
    87    79    99    1
    88    80    81   un
    89    80    89    1
    90    81    90    1
    91    82    95   un
    92    82    96   un
    93    82   100    1
    94    83    84   un
    95    83    92    1
    96    83    96   un
    97    84    93    1
    98    84   100    1
    99    85    94    1
   100    86    94    1
   101    91    96    1
   102    95    99   un
   103    97    99   un
   104    98    99   un
   105   101   102   un
   106   101   106   un
   107   101   118    1
   108   102   103   un
   109   102   112    1
   110   103   104    1
   111   103   113    1
   112   104   105    1
   113   104   123    1
   114   105   106   un
   115   105   114    1
   116   106   115    1
   117   107   119   un
   118   107   120   un
   119   107   124    1
   120   108   109   un
   121   108   117    1
   122   108   120   un
   123   109   124    1
   124   109   125    1
   125   110   118    1
   126   111   118    1
   127   116   120    1
   128   119   123   un
   129   121   123   un
   130   122   123   un
   131   126   127   un
   132   126   131   un
   133   126   143    1
   134   127   128   un
   135   127   137    1
   136   128   129    1
   137   128   138    1
   138   129   130    1
   139   129   148    1
   140   130   131   un
   141   130   139    1
   142   131   140    1
   143   132   144   un
   144   132   145   un
   145   132   149    1
   146   133   134   un
   147   133   142    1
   148   133   145   un
   149   134   149    1
   150   134   150    1
   151   135   143    1
   152   136   143    1
   153   141   145    1
   154   144   148   un
   155   146   148   un
   156   147   148   un
   157   151   152   un
   158   151   156   un
   159   151   168    1
   160   152   153   un
   161   152   162    1
   162   153   154    1
   163   153   163    1
   164   154   155    1
   165   154   173    1
   166   155   156   un
   167   155   164    1
   168   156   165    1
   169   157   169   un
   170   157   170   un
   171   157   174    1
   172   158   159   un
   173   158   167    1
   174   158   170   un
   175   159   174    1
   176   159   175    1
   177   160   168    1
   178   161   168    1
   179   166   170    1
   180   169   173   un
   181   171   173   un
   182   172   173   un
   183   176   177   un
   184   176   181   un
   185   176   193    1
   186   177   178   un
   187   177   187    1
   188   178   179    1
   189   178   188    1
   190   179   180    1
   191   179   198    1
   192   180   181   un
   193   180   189    1
   194   181   190    1
   195   182   194   un
   196   182   195   un
   197   182   199    1
   198   183   184   un
   199   183   192    1
   200   183   195   un
   201   184   199    1
   202   184   200    1
   203   185   193    1
   204   186   193    1
   205   191   195    1
   206   194   198   un
   207   196   198   un
   208   197   198   un
@<TRIPOS>SUBSTRUCTURE
     1 RES1        1 GROUP             0 ****  ****    0  
     2 RES2       26 GROUP             0 ****  ****    0  
     3 RES3       51 GROUP             0 ****  ****    0  
     4 RES4       76 GROUP             0 ****  ****    0  
     5 RES5      101 GROUP             0 ****  ****    0  
     6 RES6      126 GROUP             0 ****  ****    0  
     7 RES7      151 GROUP             0 ****  ****    0  
     8 RES8      176 GROUP             0 ****  ****    0  
@<TRIPOS>CRYSIN
   17.5700    8.5740   15.5830   90.0000  112.9300   90.0000    14     1
