@<TRIPOS>MOLECULE
urea
    16    14     2     0     0
SMALL
NO_CHARGES
****
Generated from the CSD

@<TRIPOS>ATOM
     1 C1       0.0000   2.7880   1.5389   C.2       1 RES1   0.0000
     2 O2       0.0000   2.7880   2.7957   O.2       1 RES1   0.0000
     3 N3       0.8074   3.5954   0.8374   N.am      1 RES1   0.0000
     4 H4       1.4609   4.2489   1.3636   H         1 RES1   0.0000
     5 H5       0.7193   3.5073  -0.1968   H         1 RES1   0.0000
     6 N3      -0.8074   1.9806   0.8374   N.am      1 RES1   0.0000
     7 H4      -1.4609   1.3271   1.3636   H         1 RES1   0.0000
     8 H5      -0.7193   2.0687  -0.1968   H         1 RES1   0.0000
     9 C1       2.7880   0.0000   3.1471   C.2       2 RES2   0.0000
    10 O2       2.7880   0.0000   1.8903   O.2       2 RES2   0.0000
    11 N3       3.5954  -0.8074   3.8486   N.am      2 RES2   0.0000
    12 H4       4.2489  -1.4609   3.3224   H         2 RES2   0.0000
    13 H5       3.5073  -0.7193   4.8828   H         2 RES2   0.0000
    14 N3       1.9806   0.8074   3.8486   N.am      2 RES2   0.0000
    15 H4       1.3271   1.4609   3.3224   H         2 RES2   0.0000
    16 H5       2.0687   0.7193   4.8828   H         2 RES2   0.0000
@<TRIPOS>BOND
     1     1     2    2
     2     1     3   un
     3     1     6   un
     4     3     4    1
     5     3     5    1
     6     6     7    1
     7     6     8    1
     8     9    10    2
     9     9    11   un
    10     9    14   un
    11    11    12    1
    12    11    13    1
    13    14    15    1
    14    14    16    1
@<TRIPOS>SUBSTRUCTURE
     1 RES1        1 GROUP             0 ****  ****    0  
     2 RES2        9 GROUP             0 ****  ****    0  
@<TRIPOS>CRYSIN
    5.5760    5.5760    4.6860   90.0000   90.0000   90.0000   113     1
