@<TRIPOS>MOLECULE
temp_mol.xyz
 13 12 0 0 0
SMALL
GASTEIGER

@<TRIPOS>ATOM
      1 C           3.1150    3.2192   -0.0447 C.ar    1  LIG1       -0.0618
      2 C           4.1307    3.6284   -0.9079 C.ar    1  LIG1       -0.0618
      3 C           2.5660    4.1220    0.8672 C.ar    1  LIG1       -0.0618
      4 H           2.7443    2.1940   -0.0853 H       1  LIG1        0.0618
      5 H           4.5517    2.9245   -1.6239 H       1  LIG1        0.0618
      6 C           4.6014    4.9411   -0.8672 C.ar    1  LIG1       -0.0618
      7 H           1.7592    3.8168    1.5359 H       1  LIG1        0.0618
      8 C           3.0367    5.4347    0.9079 C.ar    1  LIG1       -0.0618
      9 C           4.0524    5.8439    0.0447 C.ar    1  LIG1       -0.0618
     10 H           5.4082    5.2463   -1.5359 H       1  LIG1        0.0618
     11 H           2.6157    6.1386    1.6239 H       1  LIG1        0.0618
     12 H           4.4231    6.8691    0.0853 H       1  LIG1        0.0618
     13 C           3.5837    4.5316    0.0000 C.3     2  LIG2        0.0000
@<TRIPOS>BOND
     1     5     2    1
     2    10     6    1
     3     2     6   ar
     4     2     1   ar
     5     6     9   ar
     6     4     1    1
     7     1     3   ar
     8     9    12    1
     9     9     8   ar
    10     3     8   ar
    11     3     7    1
    12     8    11    1
